geometry optimzed in LAMMPS
_audit_creation_date              2020-11-30 
_audit_creation_method            'lammps2cif' 
_symmetry_space_group_name_H-M    'P1' 
_symmetry_Int_Tables_number       1 
_symmetry_cell_setting            triclinic 
loop_ 
_symmetry_equiv_pos_as_xyz 
  x,y,z 
_cell_length_a                    40.17747802 
_cell_length_b                    40.741951904881596 
_cell_length_c                    40.316895789388774 
_cell_angle_alpha                 89.25830585309237 
_cell_angle_beta                  89.42727411517171 
_cell_angle_gamma                 89.36290381095297 
loop_ 
_atom_site_label 
_atom_site_type_symbol 
_atom_site_fract_x 
_atom_site_fract_y 
_atom_site_fract_z 
_atom_site_charge 
O1          O  0.71810921  0.76530483  0.79436386    -0.88800
C2          C  0.72866183  0.67933720  0.74408477     0.87200
Mg3        Mg  0.69243880  0.80731852  0.77394968     1.58100
O4          O  0.80110925  0.72467567  0.75004792    -0.88600
O5          O  0.76699066  0.75106561  0.81425270    -0.75900
C6          C  0.75513906  0.82033960  0.62069481     0.92200
O7          O  0.66935357  0.73236115  0.74195922    -0.75700
O8          O  0.72918726  0.82477404  0.63839759    -0.83200
Mg9        Mg  0.69286792  0.71934457  0.79205359     1.58000
C10         C  0.86433403  0.74294569  0.67418712     0.92200
O11         O  0.71141305  0.70475177  0.84504331    -0.81500
H12         H  0.83361582  0.74843291  0.77802205    -0.06800
C13         C  0.74911093  0.73584652  0.66496158     0.87100
O14         O  0.74249334  0.82923465  0.75717256    -0.76000
O15         O  0.73484034  0.69754456  0.76760040    -0.88800
O16         O  0.85026781  0.71974809  0.69040704    -0.81600
C17         C  0.81439386  0.63579797  0.74963995     0.92300
C18         C  0.73506112  0.68770527  0.85765409     0.92100
Mg19       Mg  0.79898513  0.78793829  0.68516256     1.58000
O20         O  0.78086859  0.80540236  0.63217993    -0.81500
O21         O  0.82039800  0.77336349  0.73619010    -0.75700
O22         O  0.79816696  0.64746038  0.77448438    -0.81600
O23         O  0.64719649  0.74080423  0.81483602    -0.83300
O24         O  0.69488107  0.85744876  0.70316948    -0.81600
C25         C  0.81914785  0.74844105  0.75552685     0.86600
O26         O  0.75582528  0.80767682  0.70929478    -0.88700
O27         O  0.77343118  0.74215889  0.68241161    -0.88900
O28         O  0.72296292  0.75380712  0.66450921    -0.75900
Mg29       Mg  0.78120795  0.70040502  0.79276703     1.58000
O30         O  0.82068376  0.65326339  0.72397729    -0.83300
H31         H  0.74228076  0.79293349  0.82669753    -0.07000
O32         O  0.68777931  0.78133267  0.72870536    -0.88600
H33         H  0.65412383  0.75830525  0.70148980    -0.06800
H34         H  0.78357657  0.84184788  0.73046797    -0.07000
C35         C  0.66944597  0.75780211  0.72340244     0.86500
C36         C  0.74211234  0.77064208  0.81249701     0.87100
C37         C  0.76145324  0.82702031  0.73187744     0.87200
H38         H  0.74955800  0.71355153  0.65075101    -0.07000
O39         O  0.74710193  0.67811601  0.71823763    -0.76000
Mg40       Mg  0.70888663  0.80425491  0.68558897     1.58000
H41         H  0.70626953  0.66487457  0.74506352    -0.07000
C42         C  0.63018159  0.76719950  0.81287089     0.92200
O43         O  0.66768278  0.85177275  0.75126728    -0.83200
C44         C  0.67812809  0.86959797  0.72726193     0.92200
O45         O  0.76033679  0.67859567  0.84058553    -0.83200
Mg46       Mg  0.79779421  0.70028256  0.70390165     1.58200
O47         O  0.64064398  0.79181254  0.79605823    -0.81600
O48         O  0.84769231  0.76764984  0.66337454    -0.83300
C49         C  0.62139472  0.00249263  0.74669694    -0.03000
O50         O  0.76051229  0.19330537  0.77695466    -0.88800
C51         C  0.67058078  0.23814592  0.75975488     0.87200
Mg52       Mg  0.80078530  0.21381569  0.80355803     1.58100
O53         O  0.72375641  0.23508936  0.69068170    -0.88600
O54         O  0.75217650  0.17275029  0.72770070    -0.75900
C55         C  0.80948874  0.36697456  0.74225912     0.92200
O56         O  0.72197402  0.24659255  0.82029709    -0.75700
O57         O  0.81945156  0.34932407  0.76660513    -0.83200
Mg58       Mg  0.71180807  0.19591373  0.79893362     1.58000
C59         C  0.73899070  0.31524979  0.63233411     0.92200
O60         O  0.70005252  0.14358030  0.78235580    -0.81500
H61         H  0.75191506  0.20992033  0.65846388    -0.06800
C62         C  0.72669518  0.31935118  0.74548457     0.87100
O63         O  0.82527628  0.22987595  0.75396397    -0.76000
O64         O  0.69234742  0.21706047  0.75481988    -0.88800
O65         O  0.71601414  0.29624874  0.64266520    -0.81600
C66         C  0.63678030  0.22868617  0.67010838     0.92300
C67         C  0.68671339  0.12972028  0.75776191     0.92100
Mg68       Mg  0.78182227  0.30213622  0.69824193     1.58000
O69         O  0.79258577  0.35456419  0.71890825    -0.81500
O70         O  0.77300461  0.25199844  0.67399571    -0.75700
O71         O  0.64875462  0.20450713  0.68682233    -0.81600
O72         O  0.72894514  0.17583529  0.84732717    -0.83300
O73         O  0.85018984  0.28270418  0.80178810    -0.81600
C74         C  0.74929696  0.23152523  0.67356083     0.86600
O75         O  0.80260020  0.27737436  0.74028995    -0.88700
O76         O  0.73430900  0.30143002  0.72188898    -0.88900
O77         O  0.74530854  0.32209759  0.77075396    -0.75900
Mg78       Mg  0.70134727  0.19142853  0.70948326     1.58000
O79         O  0.65190009  0.25602610  0.66822645    -0.83300
H80         H  0.79234586  0.16158494  0.75591500    -0.07000
O81         O  0.77346077  0.25912804  0.80645132    -0.88600
H82         H  0.74545619  0.28713041  0.83625536    -0.06800
H83         H  0.83883300  0.25648297  0.71315090    -0.07000
C84         C  0.74732903  0.26488883  0.82202213     0.86500
C85         C  0.76908683  0.17508684  0.75401103     0.87100
C86         C  0.82299290  0.25499434  0.73498022     0.87200
H87         H  0.70330073  0.33274437  0.74482942    -0.07000
O88         O  0.66866216  0.26404130  0.74207833    -0.76000
Mg89       Mg  0.79711696  0.30157743  0.78628699     1.58000
H90         H  0.65375053  0.23516990  0.78066884    -0.07000
C91         C  0.75386148  0.18043981  0.86563769     0.92200
O92         O  0.84588739  0.23506327  0.82898691    -0.83200
C93         C  0.86321722  0.25935949  0.81897472     0.92200
O94         O  0.68089514  0.14454792  0.73043166    -0.83200
Mg95       Mg  0.69487176  0.27942027  0.69399579     1.58200
O96         O  0.77983373  0.19497026  0.85457935    -0.81600
O97         O  0.76108937  0.32579256  0.65182014    -0.83300
C98         C  0.87390652  0.49936053  0.74641131    -0.03000
C99         C  0.74917842  0.88394924  0.48825485    -0.03000
O100        O  0.77423041  0.76842953  0.18597871    -0.88800
C101        C  0.75919988  0.68623393  0.24061373     0.87200
Mg102      Mg  0.80127041  0.80855905  0.20615951     1.58100
O103        O  0.68715262  0.73418913  0.23084510    -0.88600
O104        O  0.72483427  0.75733640  0.16593179    -0.75900
C105        C  0.73334795  0.82772573  0.35478217     0.92200
O106        O  0.81954861  0.73399022  0.24203809    -0.75700
O107        O  0.75461001  0.83932217  0.33447674    -0.83200
Mg108      Mg  0.79734785  0.72113670  0.19125166     1.58000
C109        C  0.62437356  0.75457718  0.30967325     0.92200
O110        O  0.77956346  0.70677531  0.13797454    -0.81500
H111        H  0.65432722  0.75711849  0.20130915    -0.06800
C112        C  0.73597229  0.74496566  0.31712274     0.87100
O113        O  0.75123728  0.83475275  0.21834092    -0.76000
O114        O  0.75425858  0.70430501  0.21619183    -0.88800
O115        O  0.63673328  0.73015713  0.29396027    -0.81600
C116        C  0.67753062  0.64552884  0.23640304     0.92300
C117        C  0.75537950  0.69077979  0.12608183     0.92100
Mg118      Mg  0.68966543  0.79747808  0.29170691     1.58000
O119        O  0.70949135  0.81028277  0.34449163    -0.81500
O120        O  0.66723444  0.78351705  0.24150395    -0.75700
O121        O  0.69474456  0.65732401  0.21237632    -0.81600
O122        O  0.84458466  0.73760066  0.16862909    -0.83300
O123        O  0.79807839  0.85990619  0.27292712    -0.81600
C124        C  0.66877520  0.75786676  0.22378013     0.86600
O125        O  0.73372884  0.81453161  0.26598367    -0.88700
O126        O  0.71353600  0.75095655  0.29704938    -0.88900
O127        O  0.76176020  0.76268039  0.31866824    -0.75900
Mg128      Mg  0.70914329  0.70804633  0.19008290     1.58000
O129        O  0.66551661  0.66368848  0.25912995    -0.83300
H130        H  0.75193974  0.79706861  0.15196890    -0.07000
O131        O  0.80108213  0.78349576  0.25332614    -0.88600
H132        H  0.83247648  0.75901140  0.28315347    -0.06800
H133        H  0.70863220  0.84976501  0.24146999    -0.07000
C134        C  0.81845531  0.75917266  0.26037810     0.86500
C135        C  0.75074682  0.77508138  0.16718917     0.87100
C136        C  0.73026526  0.83372760  0.24220630     0.87200
H137        H  0.73396200  0.72365531  0.33322936    -0.07000
O138        O  0.73959287  0.68589469  0.26556479    -0.76000
Mg139      Mg  0.77852780  0.81071969  0.29310289     1.58000
H140        H  0.78138529  0.67095009  0.24115685    -0.07000
C141        C  0.86346410  0.76148445  0.17461602     0.92200
O142        O  0.82827772  0.85228106  0.22708470    -0.83200
C143        C  0.81850682  0.87024584  0.25092611     0.92200
O144        O  0.73064016  0.68271496  0.14435447    -0.83200
Mg145      Mg  0.68893070  0.70982372  0.27809285     1.58200
O146        O  0.85299797  0.78655973  0.19047686    -0.81600
O147        O  0.64117031  0.78016003  0.31548671    -0.83300
C148        C  0.74351155  0.62837210  0.99322478    -0.03000
C149        C  0.49386897  0.75284820  0.38075200    -0.03000
C150        C  0.13603516  0.98982646  0.75469935    -0.03000
C151        C  0.74814058  0.12548104  0.00285297    -0.03000
C152        C  0.38644777  0.49212002  0.76177577    -0.03000
C153        C  0.75470903  0.37968906  0.49980114    -0.03000
C154        C  0.63103947  0.50799472  0.25818093    -0.03000
C155        C  0.25106181  0.62876690  0.50037384    -0.03000
C156        C  0.99796940  0.75012805  0.11453024    -0.03000
O157        O  0.27631647  0.79233258  0.28325137    -0.88800
C158        C  0.28794646  0.76484537  0.18864322     0.87200
Mg159      Mg  0.28071203  0.75694351  0.32264009     1.58100
O160        O  0.20550163  0.78270813  0.21106377    -0.88600
O161        O  0.23956282  0.82756727  0.26352691    -0.75900
C162        C  0.18486593  0.63175045  0.27459956     0.92200
O163        O  0.32348702  0.73624495  0.25376287    -0.75700
O164        O  0.20928293  0.63650315  0.29410417    -0.83200
Mg165      Mg  0.31660189  0.79270755  0.24770536     1.58000
C166        C  0.12652992  0.72864330  0.18640548     0.92200
O167        O  0.31240491  0.84920811  0.24081887    -0.81500
H168        H  0.17288550  0.81467471  0.23044992    -0.06800
C169        C  0.22982203  0.68631301  0.21194613     0.87100
O170        O  0.22368829  0.75252735  0.32673300    -0.76000
O171        O  0.28037958  0.78555099  0.20976999    -0.88800
O172        O  0.15203692  0.74097290  0.17210447    -0.81600
C173        C  0.22707601  0.80375452  0.12580504     0.92300
C174        C  0.29771689  0.87193482  0.22410489     0.92100
Mg175      Mg  0.17150885  0.71221550  0.25249159     1.58000
O176        O  0.17209119  0.65535086  0.25750872    -0.81500
O177        O  0.16742116  0.76809512  0.24771638    -0.75700
O178        O  0.23978094  0.81920473  0.14985548    -0.81600
O179        O  0.35782903  0.79910639  0.28736613    -0.83300
O180        O  0.25121902  0.67966720  0.35061186    -0.81600
C181        C  0.18136831  0.78945784  0.22918864     0.86600
O182        O  0.20851683  0.71595740  0.29050664    -0.88700
O183        O  0.21073036  0.70997878  0.21610330    -0.88900
O184        O  0.24618371  0.67339268  0.23565996    -0.75900
Mg185      Mg  0.24020591  0.82135357  0.20682366     1.58000
O186        O  0.21029284  0.77781680  0.13055422    -0.83300
H187        H  0.25121351  0.82362071  0.31231380    -0.07000
O188        O  0.28366136  0.71835991  0.28698927    -0.88600
H189        H  0.31866348  0.68850202  0.26811261    -0.06800
H190        H  0.17604704  0.73744410  0.32150844    -0.07000
C191        C  0.30892718  0.71324580  0.26983696     0.86500
C192        C  0.25592645  0.81494506  0.28743931     0.87100
C193        C  0.20169223  0.73496115  0.31335084     0.87200
H194        H  0.23359384  0.67707124  0.18714930    -0.07000
O195        O  0.26641867  0.74672226  0.17519429    -0.76000
Mg196      Mg  0.24737503  0.67923351  0.29219105     1.58000
H197        H  0.31394534  0.76125982  0.18222817    -0.07000
C198        C  0.36194664  0.78098524  0.31305024     0.92200
O199        O  0.28412650  0.72049266  0.36580881    -0.83200
C200        C  0.26824762  0.69433585  0.37262735     0.92200
O201        O  0.27424821  0.86553808  0.20437680    -0.83200
Mg202      Mg  0.20924078  0.74378545  0.17561789     1.58200
O203        O  0.33811504  0.76299176  0.32361632    -0.81600
O204        O  0.12938292  0.71230987  0.21356367    -0.83300
C205        C  0.25125598  0.86978960  0.99456714    -0.03000
C206        C  0.50336838  0.25144713  0.61001481    -0.03000
O207        O  0.29204484  0.27917667  0.79207601    -0.88800
C208        C  0.19433172  0.28515915  0.76352088     0.87200
Mg209      Mg  0.33265783  0.27879686  0.75718840     1.58100
O210        O  0.21717417  0.20624605  0.79129057    -0.88600
O211        O  0.27068357  0.24672907  0.83077613    -0.75900
C212        C  0.27949228  0.17804647  0.64305335     0.92200
O213        O  0.26087412  0.31704187  0.72873929    -0.75700
O214        O  0.30286627  0.19810007  0.64758487    -0.83200
Mg215      Mg  0.25476577  0.31680636  0.78536106     1.58000
C216        C  0.19283988  0.12301585  0.73852622     0.92200
O217        O  0.24814884  0.32137759  0.84231948    -0.81500
H218        H  0.23527540  0.17620682  0.82656204    -0.06800
C219        C  0.21852272  0.22445462  0.69378588     0.87100
O220        O  0.33475917  0.22221447  0.76051831    -0.76000
O221        O  0.21754272  0.27974084  0.78287138    -0.88800
O222        O  0.17793296  0.14701433  0.75299184    -0.81600
C223        C  0.13224070  0.23130452  0.81021685     0.92300
C224        C  0.22957212  0.31215346  0.86647660     0.92100
Mg225      Mg  0.25831751  0.16823601  0.72342936     1.58000
O226        O  0.26130145  0.16754666  0.66684516    -0.81500
O227        O  0.25293533  0.16662506  0.78026555    -0.75700
O228        O  0.15643883  0.24805249  0.82097947    -0.81600
O229        O  0.29304239  0.35777883  0.78465675    -0.83300
O230        O  0.35897105  0.23825469  0.68514970    -0.81600
C231        C  0.23465918  0.18265325  0.80046077     0.86600
O232        O  0.29673210  0.20473462  0.72647456    -0.88700
O233        O  0.22144454  0.20593480  0.71825821    -0.88900
O234        O  0.24335411  0.23854927  0.68005861    -0.75900
Mg235      Mg  0.21364286  0.24688395  0.82439106     1.58000
O236        O  0.13661591  0.20887910  0.78873748    -0.83300
H237        H  0.31990248  0.25702893  0.82678521    -0.07000
O238        O  0.29706216  0.27780540  0.71836558    -0.88600
H239        H  0.27901801  0.30735026  0.68269675    -0.06800
H240        H  0.32642083  0.17401411  0.75192150    -0.07000
C241        C  0.27950866  0.30114658  0.70886322     0.86500
C242        C  0.29522712  0.26126481  0.81699040     0.87100
C243        C  0.31960793  0.19915386  0.74619156     0.87200
H244        H  0.19388170  0.22946215  0.68420946    -0.07000
O245        O  0.17886668  0.26199085  0.74972178    -0.76000
Mg246      Mg  0.30070222  0.23809624  0.68521780     1.58000
H247        H  0.18737495  0.31026308  0.75775413    -0.07000
C248        C  0.31995066  0.36091265  0.76791306     0.92200
O249        O  0.37653829  0.27550691  0.72094385    -0.83200
C250        C  0.38196200  0.25594384  0.69699767     0.92200
O251        O  0.21057956  0.28774980  0.86296905    -0.83200
Mg252      Mg  0.18076918  0.20531848  0.75254633     1.58200
O253        O  0.33472974  0.33635280  0.75454634    -0.81600
O254        O  0.21988117  0.12735794  0.72235626    -0.83300
C255        C  0.00021938  0.25353529  0.87742800    -0.03000
O256        O  0.78400614  0.21711895  0.21259940    -0.88800
C257        C  0.68642724  0.21594147  0.23411927     0.87200
Mg258      Mg  0.81992643  0.21054378  0.25108279     1.58100
O259        O  0.71634929  0.29381589  0.21440661    -0.88600
O260        O  0.77052812  0.25411557  0.17473752    -0.75900
C261        C  0.77188812  0.31222682  0.36955199     0.92200
O262        O  0.74440475  0.17670878  0.26901084    -0.75700
O263        O  0.78874772  0.28599391  0.36518752    -0.83200
Mg264      Mg  0.74474995  0.18144259  0.21192802     1.58000
C265        C  0.69400170  0.37459958  0.26833849     0.92200
O266        O  0.74372085  0.18149528  0.15475974    -0.81500
H267        H  0.73997631  0.32415943  0.18293710    -0.06800
C268        C  0.70708233  0.27345132  0.31275199     0.87100
O269        O  0.82832628  0.26633935  0.25264329    -0.76000
O270        O  0.70999857  0.22077145  0.21465155    -0.88800
O271        O  0.68031592  0.35191325  0.25172389    -0.81600
C272        C  0.63070373  0.27592003  0.18988472     0.92300
C273        C  0.73120541  0.19644910  0.12979856     0.92100
Mg274      Mg  0.75424878  0.32548996  0.28791692     1.58000
O275        O  0.75621522  0.32632467  0.34573462    -0.81500
O276        O  0.75325499  0.32929130  0.23101131    -0.75700
O277        O  0.65573562  0.26174654  0.17612387    -0.81600
O278        O  0.78072280  0.13840066  0.21082786    -0.83300
O279        O  0.84136513  0.24172394  0.32465056    -0.81600
C280        C  0.73617732  0.31623137  0.20841202     0.86600
O281        O  0.78917110  0.28570204  0.28556459    -0.88700
O282        O  0.71492031  0.29064768  0.28847356    -0.88900
O283        O  0.72820853  0.25540697  0.32777456    -0.75900
Mg284      Mg  0.71336230  0.25830462  0.17672440     1.58000
O285        O  0.63457325  0.29548059  0.21398801    -0.83300
H286        H  0.81783976  0.23799124  0.18256898    -0.07000
O287        O  0.77979958  0.21315773  0.28629946    -0.88600
H288        H  0.75586290  0.18274329  0.31750165    -0.06800
H289        H  0.82415510  0.31431570  0.26516825    -0.07000
C290        C  0.76020932  0.19052031  0.29207217     0.86500
C291        C  0.79185000  0.23600795  0.18955921     0.87100
C292        C  0.81431896  0.28988796  0.26805991     0.87200
H293        H  0.68128842  0.27292799  0.32073016    -0.07000
O294        O  0.67284493  0.23894162  0.25066967    -0.76000
Mg295      Mg  0.78488405  0.24893402  0.32374545     1.58000
H296        H  0.67789302  0.19113599  0.23805395    -0.07000
C297        C  0.80366287  0.13267430  0.23165325     0.92200
O298        O  0.86065672  0.20413427  0.29053329    -0.83200
C299        C  0.86494779  0.22292176  0.31499771     0.92200
O300        O  0.71410030  0.22262360  0.13367765    -0.83200
Mg301      Mg  0.67780037  0.29494596  0.25122115     1.58200
O302        O  0.81547482  0.15502185  0.24972553    -0.81600
O303        O  0.71816697  0.36869197  0.28783429    -0.83300
C304        C  0.87123152  0.00459966  0.25132655    -0.03000
C305        C  0.99645694  0.24872290  0.38075546    -0.03000
O306        O  0.26170618  0.30582916  0.22435043    -0.88800
C307        C  0.17334175  0.25939693  0.23659771     0.87200
Mg308      Mg  0.30375269  0.28341613  0.20076556     1.58100
O309        O  0.21898149  0.26520623  0.30923648    -0.88600
O310        O  0.24844913  0.32686395  0.27281418    -0.75900
C311        C  0.30820569  0.13357537  0.26764763     0.92200
O312        O  0.22751487  0.25374779  0.17766516    -0.75700
O313        O  0.31798964  0.14984278  0.24233511    -0.83200
Mg314      Mg  0.21564036  0.30469501  0.19893552     1.58000
C315        C  0.23483316  0.18833334  0.37378624     0.92200
O316        O  0.20317839  0.35796722  0.21758579    -0.81500
H317        H  0.24284092  0.29247277  0.34212655    -0.06800
C318        C  0.22657067  0.18010628  0.25985363     0.87100
O319        O  0.32439950  0.26923813  0.25208823    -0.76000
O320        O  0.19306979  0.28193991  0.24165974    -0.88800
O321        O  0.21113437  0.20583291  0.36141750    -0.81600
C322        C  0.12881798  0.26944194  0.31923014     0.92300
C323        C  0.18604022  0.37134160  0.24081598     0.92100
Mg324      Mg  0.27935846  0.19932740  0.30868986     1.58000
O325        O  0.29193173  0.14669559  0.29135914    -0.81500
O326        O  0.26720339  0.25028465  0.33015720    -0.75700
O327        O  0.14232532  0.29207857  0.30174252    -0.81600
O328        O  0.23823582  0.32494243  0.15085965    -0.83300
O329        O  0.35186349  0.21226927  0.20536662    -0.81600
C330        C  0.24262992  0.27017006  0.32795190     0.86600
O331        O  0.30115248  0.22240147  0.26598072    -0.88700
O332        O  0.23308156  0.19786527  0.28362803    -0.88900
O333        O  0.24569860  0.17781362  0.23457879    -0.75900
Mg334      Mg  0.19636832  0.30765660  0.28707626     1.58000
O335        O  0.14516177  0.24435662  0.32952420    -0.83300
H336        H  0.29100157  0.33743421  0.24748664    -0.07000
O337        O  0.27609354  0.23914610  0.19812421    -0.88600
H338        H  0.25215723  0.21186165  0.16530366    -0.06800
H339        H  0.33527408  0.24360527  0.29418921    -0.07000
C340        C  0.25233792  0.23413716  0.17952302     0.86500
C341        C  0.26788404  0.32410005  0.24781535     0.87100
C342        C  0.32103932  0.24463740  0.27155166     0.87200
H343        H  0.20337848  0.16690152  0.26012694    -0.07000
O344        O  0.17028069  0.23503254  0.25650943    -0.76000
Mg345      Mg  0.29786835  0.19678288  0.22042548     1.58000
H346        H  0.15881789  0.26003123  0.21413471    -0.07000
C347        C  0.26341429  0.31503536  0.13404486     0.92200
O348        O  0.35094092  0.26107479  0.17961001    -0.83200
C349        C  0.36632276  0.23516088  0.18892104     0.92200
O350        O  0.17534572  0.35459340  0.26543096    -0.83200
Mg351      Mg  0.19175979  0.22080475  0.30779387     1.58200
O352        O  0.28684182  0.29803568  0.14714230    -0.81600
O353        O  0.25841366  0.17731355  0.35575756    -0.83300
C354        C  0.24908300  0.37659214  0.00012722    -0.03000
C355        C  0.36275748  0.00061786  0.24687411    -0.03000
O356        O  0.94732462  0.00701261  0.47123277    -0.88800
C357        C  0.00135130  0.92386138  0.48723127     0.87200
Mg358      Mg  0.96795042  0.04864932  0.44725711     1.58100
O359        O  0.99039475  0.97096941  0.55845032    -0.88600
O360        O  0.92677166  0.99606322  0.52089561    -0.75900
C361        C  0.11783654  0.06592522  0.51280264     0.92200
O362        O  0.00519792  0.97534534  0.42579394    -0.75700
O363        O  0.10113303  0.07302273  0.48709112    -0.83200
Mg364      Mg  0.95412426  0.96086753  0.44685804     1.58000
C365        C  0.06794441  0.99025527  0.62242082     0.92200
O366        O  0.90145846  0.94493618  0.46379724    -0.81500
H367        H  0.96085277  0.99337789  0.59162477    -0.06800
C368        C  0.07769033  0.98093537  0.50895393     0.87100
O369        O  0.97955051  0.07092369  0.49820925    -0.76000
O370        O  0.97709403  0.94251023  0.49116584    -0.88800
O371        O  0.05058886  0.96681587  0.61084749    -0.81600
C372        C  0.99130236  0.88153122  0.57009185     0.92300
C373        C  0.88780721  0.93071223  0.48869251     0.92100
Mg374      Mg  0.05321783  0.03316439  0.55634513     1.58000
O375        O  0.10547256  0.04953362  0.53711182    -0.81500
O376        O  0.00234467  0.01895487  0.57906698    -0.75700
O377        O  0.96817009  0.89388692  0.55221672    -0.81600
O378        O  0.93279140  0.97983554  0.39814907    -0.83300
O379        O  0.03413733  0.10030165  0.45322224    -0.81600
C380        C  0.98365640  0.99405828  0.57710295     0.86600
O381        O  0.02857438  0.05175845  0.51330771    -0.88700
O382        O  0.05858391  0.98692307  0.53254341    -0.88900
O383        O  0.07909230  0.99922411  0.48306771    -0.75900
Mg384      Mg  0.94943965  0.94640169  0.53657360     1.58000
O385        O  0.01425997  0.89946468  0.58171780    -0.83300
H386        H  0.91268111  0.03537765  0.49282255    -0.07000
O387        O  0.01486455  0.02387278  0.44626855    -0.88600
H388        H  0.04575079  0.00241532  0.41369722    -0.06800
H389        H  0.00275560  0.08420635  0.54039815    -0.07000
C390        C  0.02269706  0.00101439  0.42774277     0.86500
C391        C  0.92797536  0.01342905  0.49446337     0.87100
C392        C  0.00394088  0.06971006  0.51814571     0.87200
H393        H  0.09298709  0.95896695  0.50997993    -0.07000
O394        O  0.02534505  0.92253498  0.50764001    -0.76000
Mg395      Mg  0.05535449  0.04891664  0.46752618     1.58000
H396        H  0.00255568  0.90879114  0.46538287    -0.07000
C397        C  0.93930223  0.00602505  0.38189273     0.92200
O398        O  0.98804723  0.09489031  0.42390910    -0.83200
C399        C  0.01085137  0.11261577  0.43557814     0.92200
O400        O  0.90379127  0.92445186  0.51513216    -0.83200
Mg401      Mg  0.03681508  0.94581426  0.55811774     1.58200
O402        O  0.95421867  0.03012756  0.39491945    -0.81600
O403        O  0.07683020  0.01420917  0.60388607    -0.83300
O404        O  0.03827695  0.04411283  0.96724925    -0.88800
C405        C  0.94141776  0.01989213  0.96102131     0.87200
Mg406      Mg  0.07640378  0.00741476  0.96381460     1.58100
O407        O  0.96675103  0.03605357  0.04239051    -0.88600
O408        O  0.02018748  0.07939718  0.00424598    -0.75900
C409        C  0.02399518  0.88377877  0.05918810     0.92200
O410        O  0.00512520  0.98830705  0.92347413    -0.75700
O411        O  0.04182471  0.88849250  0.03339281    -0.83200
Mg412      Mg  0.00157089  0.04442196  0.92880742     1.58000
C413        C  0.94024520  0.97534247  0.12191428     0.92200
O414        O  0.99599403  0.10106628  0.93061483    -0.81500
H415        H  0.98547498  0.06674965  0.07550138    -0.06800
C416        C  0.96268422  0.94084498  0.01843036     0.87100
O417        O  0.07977654  0.00423901  0.02067741    -0.76000
O418        O  0.96409584  0.03919408  0.96708203    -0.88800
O419        O  0.92826047  0.99219264  0.09768061    -0.81600
C420        C  0.88122206  0.06035713  0.02291184     0.92300
C421        C  0.97978296  0.12398454  0.94534565     0.92100
Mg422      Mg  0.00575189  0.96345823  0.07600297     1.58000
O423        O  0.01090675  0.90776997  0.07465730    -0.81500
O424        O  0.00108428  0.01950669  0.08134626    -0.75700
O425        O  0.90586871  0.07483460  0.00918324    -0.81600
O426        O  0.04146395  0.04722999  0.88609162    -0.83300
O427        O  0.09888714  0.93044416  0.99552251    -0.81600
C428        C  0.98403115  0.04184064  0.06685715     0.86600
O429        O  0.04241255  0.96848859  0.03742932    -0.88700
O430        O  0.96863579  0.96334355  0.03769927    -0.88900
O431        O  0.98517222  0.92811861  0.00026101    -0.75900
Mg432      Mg  0.96320680  0.07489167  0.00640578     1.58000
O433        O  0.88545946  0.03464790  0.04085083    -0.83300
H434        H  0.06865189  0.07480724  0.99022974    -0.07000
O435        O  0.03851182  0.97121739  0.96293482    -0.88600
H436        H  0.01935801  0.94071812  0.92987964    -0.06800
H437        H  0.07349096  0.98996259  0.06872050    -0.07000
C438        C  0.02132291  0.96563827  0.93837118     0.86500
C439        C  0.04341779  0.06658252  0.98688928     0.87100
C440        C  0.06564362  0.98721836  0.04332422     0.87200
H441        H  0.93726497  0.93286492  0.01583808    -0.07000
O442        O  0.92751369  0.00256542  0.98356697    -0.76000
Mg443      Mg  0.04174481  0.93224664  0.99836395     1.58000
H444        H  0.93384095  0.01695394  0.93556848    -0.07000
C445        C  0.06593620  0.02720595  0.88221952     0.92200
O446        O  0.11870600  0.96964121  0.96190286    -0.83200
C447        C  0.12278335  0.94376474  0.97949248     0.92200
O448        O  0.96129514  0.11826771  0.97050726    -0.83200
Mg449      Mg  0.92977251  0.99853550  0.04051665     1.58200
O450        O  0.07700067  0.01052643  0.90681194    -0.81600
O451        O  0.96705165  0.95876350  0.11829695    -0.83300
O452        O  0.50951083  0.97608624  0.43694934    -0.88800
C453        C  0.42220348  0.98780136  0.48772763     0.87200
Mg454      Mg  0.55067254  0.95077151  0.45904304     1.58100
O455        O  0.47079493  0.05813208  0.48227719    -0.88600
O456        O  0.49764366  0.02536243  0.41732961    -0.75900
C457        C  0.56037563  0.00960144  0.61240185     0.92200
O458        O  0.47642764  0.92824447  0.49124972    -0.75700
O459        O  0.57267553  0.98709841  0.59416886    -0.83200
Mg460      Mg  0.46288681  0.95148529  0.44060024     1.58000
C461        C  0.48504709  0.11789408  0.56227484     0.92200
O462        O  0.44642096  0.96996531  0.38877053    -0.81500
H463        H  0.49422653  0.09271177  0.45552077    -0.06800
C464        C  0.47769768  0.00458749  0.56749857     0.87100
O465        O  0.57280209  0.00098428  0.47344997    -0.76000
O466        O  0.44258406  0.99317763  0.46511507    -0.88800
O467        O  0.46257738  0.10689886  0.54331850    -0.81600
C468        C  0.38104205  0.07113989  0.48053935     0.92300
C469        C  0.43004631  0.99439601  0.37712662     0.92100
Mg470      Mg  0.52948218  0.05417904  0.54829830     1.58000
O471        O  0.54180123  0.03220509  0.60023355    -0.81500
O472        O  0.51794622  0.07926666  0.49793908    -0.75700
O473        O  0.39235244  0.05277760  0.45760636    -0.81600
O474        O  0.48326135  0.90606333  0.41644588    -0.83300
O475        O  0.60410706  0.95712889  0.52445548    -0.81600
C476        C  0.49401253  0.07741731  0.47763324     0.86600
O477        O  0.55105061  0.01389714  0.52197782    -0.88700
O478        O  0.48340393  0.02891898  0.54954290    -0.88900
O479        O  0.49787004  0.98017354  0.56944779    -0.75900
Mg480      Mg  0.44652004  0.03917227  0.43969477     1.58000
O481        O  0.40025903  0.08240783  0.50244180    -0.83300
H482        H  0.53878248  0.99914047  0.40389489    -0.07000
O483        O  0.52477525  0.94831816  0.50475137    -0.88600
H484        H  0.50138094  0.91482966  0.53292369    -0.06800
H485        H  0.58429648  0.04228370  0.49844511    -0.07000
C486        C  0.50122954  0.92970509  0.51051146     0.86500
C487        C  0.51606780  0.99977084  0.41854494     0.87100
C488        C  0.57001954  0.02000198  0.49826997     0.87200
H489        H  0.45467914  0.00385929  0.58167907    -0.07000
O490        O  0.41925219  0.00669742  0.51250790    -0.76000
Mg491      Mg  0.54992485  0.96786265  0.54663764     1.58000
H492        H  0.40698405  0.96616357  0.48671259    -0.07000
C493        C  0.50728121  0.88804739  0.42627238     0.92200
O494        O  0.59521456  0.92530742  0.48187548    -0.83200
C495        C  0.61545003  0.93959123  0.50067127     0.92200
O496        O  0.42431899  0.02012833  0.39370549    -0.83200
Mg497      Mg  0.44300893  0.05576635  0.52699465     1.58200
O498        O  0.53101867  0.89943104  0.44346205    -0.81600
O499        O  0.50791040  0.09924421  0.57373647    -0.83300
C500        C  0.24879902  0.13246530  0.50826434    -0.03000
O501        O  0.53531724  0.03233359  0.96341720    -0.88800
C502        C  0.54038047  0.93576378  0.98396550     0.87200
Mg503      Mg  0.53814859  0.06745289  0.00144001     1.58100
O504        O  0.46169014  0.96597035  0.96242568    -0.88600
O505        O  0.50260432  0.01801813  0.92292027    -0.75900
C506        C  0.43435124  0.01378232  0.11715569     0.92200
O507        O  0.57612158  0.99427979  0.02035722    -0.75700
O508        O  0.45999438  0.03157494  0.11389555    -0.83200
Mg509      Mg  0.57371617  0.99583833  0.96332058     1.58000
C510        C  0.37866850  0.94068714  0.01323690     0.92200
O511        O  0.57324837  0.99768396  0.90582807    -0.81500
H512        H  0.43203133  0.98975771  0.93033756    -0.06800
C513        C  0.47866659  0.95475707  0.06052110     0.87100
O514        O  0.48118391  0.07377095  0.00146180    -0.76000
O515        O  0.53571217  0.95945245  0.96494736    -0.88800
O516        O  0.40336022  0.93052812  0.99622802    -0.81600
C517        C  0.47847451  0.88165620  0.93802544     0.92300
C518        C  0.56170298  0.98135952  0.88169939     0.92100
Mg519      Mg  0.42376757  0.99981323  0.03575877     1.58000
O520        O  0.42110757  0.99935739  0.09279255    -0.81500
O521        O  0.42269475  0.00065335  0.97858058    -0.75700
O522        O  0.49666493  0.90413195  0.92517922    -0.81600
O523        O  0.61697484  0.03311463  0.96516057    -0.83300
O524        O  0.50103618  0.08785565  0.07521528    -0.81600
C525        C  0.43851208  0.98526486  0.95599218     0.86600
O526        O  0.46217787  0.03521663  0.03487655    -0.88700
O527        O  0.46185916  0.96309678  0.03623788    -0.88900
O528        O  0.49565783  0.97532938  0.07634815    -0.75900
Mg529      Mg  0.49985738  0.96147216  0.92607729     1.58000
O530        O  0.45825056  0.88742854  0.96159806    -0.83300
H531        H  0.51570482  0.06511399  0.93160707    -0.07000
O532        O  0.53644349  0.02807065  0.03661440    -0.88600
H533        H  0.56688095  0.00517337  0.06862376    -0.06800
H534        H  0.43226788  0.06862146  0.01334771    -0.07000
C535        C  0.56013038  0.00939297  0.04299629     0.86500
C536        C  0.51812968  0.03963446  0.93901871     0.87100
C537        C  0.45746392  0.05963804  0.01687456     0.87200
H538        H  0.47992936  0.92912302  0.06764770    -0.07000
O539        O  0.51658211  0.92190021  0.99955645    -0.76000
Mg540      Mg  0.49855902  0.03137109  0.07338418     1.58000
H541        H  0.56559692  0.92716678  0.98817275    -0.07000
C542        C  0.62043773  0.05443486  0.98775963     0.92200
O543        O  0.54003135  0.10604254  0.04044306    -0.83200
C544        C  0.51946311  0.11080796  0.06394965     0.92200
O545        O  0.53936422  0.95982478  0.88608478    -0.83200
Mg546      Mg  0.45961977  0.92783529  0.99870172     1.58200
O547        O  0.59483453  0.06549686  0.00262576    -0.81600
O548        O  0.38172181  0.96283132  0.03491142    -0.83300
C549        C  0.50042632  0.24071735  0.12668931    -0.03000
O550        O  0.52405257  0.55319137  0.02632635    -0.88800
C551        C  0.51251775  0.50658971  0.93940131     0.87200
Mg552      Mg  0.55106271  0.53158036  0.06701285     1.58100
O553        O  0.44117771  0.50933331  0.98891835    -0.88600
O554        O  0.47379606  0.57267649  0.01646661    -0.75900
C555        C  0.49197781  0.37861023  0.07953548     0.92200
O556        O  0.57067311  0.50075847  0.99053076    -0.75700
O557        O  0.51666464  0.39546083  0.08878063    -0.83200
Mg558      Mg  0.54696766  0.55122819  0.97835040     1.58000
C559        C  0.38454081  0.43102722  0.00536166     0.92200
O560        O  0.52778630  0.60400423  0.96374472    -0.81500
H561        H  0.40771086  0.53571982  0.01448480    -0.06800
C562        C  0.49617690  0.42480983  0.99660419     0.87100
O563        O  0.50153723  0.51602448  0.09140953    -0.76000
O564        O  0.50536352  0.52832067  0.95944970    -0.88800
O565        O  0.39642716  0.44763485  0.98115837    -0.81600
C566        C  0.42970646  0.51232368  0.89975841     0.92300
C567        C  0.50250818  0.61639919  0.94899577     0.92100
Mg568      Mg  0.44773372  0.44458121  0.05059434     1.58000
O569        O  0.46778813  0.39189252  0.06373574    -0.81500
O570        O  0.42372672  0.49471838  0.03879193    -0.75700
O571        O  0.44387216  0.53658362  0.91309225    -0.81600
O572        O  0.59276798  0.57245186  0.99577691    -0.83300
O573        O  0.55089211  0.46029024  0.11770761    -0.81600
C574        C  0.42327418  0.51392969  0.01367030     0.86600
O575        O  0.48946143  0.46801518  0.07077918    -0.88700
O576        O  0.47272087  0.44359138  0.00343684    -0.88900
O577        O  0.52167980  0.42212550  0.01493268    -0.75900
Mg578      Mg  0.45881959  0.55264778  0.96567182     1.58000
O579        O  0.42302889  0.48608067  0.91588085    -0.83300
H580        H  0.50075461  0.58440796  0.05684137    -0.07000
O581        O  0.55493944  0.48617990  0.04098854    -0.88600
H582        H  0.58689300  0.45934078  0.01403491    -0.06800
H583        H  0.46151667  0.48926664  0.10598080    -0.07000
C584        C  0.57170901  0.48135348  0.01551721     0.86500
C585        C  0.49995723  0.57088239  0.03398790     0.87100
C586        C  0.48343997  0.49064862  0.09022434     0.87200
H587        H  0.49535261  0.41094562  0.97395486    -0.07000
O588        O  0.49617147  0.48021681  0.93805606    -0.76000
Mg589      Mg  0.53585520  0.44307846  0.06557282     1.58000
H590        H  0.53434353  0.50945140  0.92371505    -0.07000
C591        C  0.61203477  0.56666036  0.01980327     0.92200
O592        O  0.57538229  0.50920361  0.11299238    -0.83200
C593        C  0.56713061  0.48382350  0.12999535     0.92200
O594        O  0.47649446  0.59995184  0.94376632    -0.83200
Mg595      Mg  0.44708634  0.46470922  0.96195969     1.58200
O596        O  0.60297014  0.54997938  0.04550301    -0.81600
O597        O  0.40148031  0.42305257  0.03070935    -0.83300
O598        O  0.97308476  0.53804996  0.53335534    -0.88800
C599        C  0.07228259  0.51631317  0.53943503     0.87200
Mg600      Mg  0.93495921  0.50205891  0.53727062     1.58100
O601        O  0.04491841  0.53345940  0.45889047    -0.88600
O602        O  0.99015570  0.57488833  0.49691180    -0.75900
C603        C  0.98970575  0.38136740  0.44208202     0.92200
O604        O  0.00881326  0.48124758  0.57584897    -0.75700
O605        O  0.96875995  0.38730188  0.46508470    -0.83200
Mg606      Mg  0.01053741  0.53748924  0.57098703     1.58000
C607        C  0.07125987  0.47776968  0.37979129     0.92200
O608        O  0.01284488  0.59433220  0.57009221    -0.81500
H609        H  0.02344748  0.56427504  0.42634624    -0.06800
C610        C  0.05109628  0.43748936  0.48512858     0.87100
O611        O  0.93199224  0.49996522  0.48030585    -0.76000
O612        O  0.04796594  0.53410102  0.53295984    -0.88800
O613        O  0.08474870  0.49362214  0.40308234    -0.81600
C614        C  0.12859152  0.55969641  0.47463468     0.92300
C615        C  0.02900973  0.61768223  0.55611878     0.92100
Mg616      Mg  0.00894375  0.46065200  0.42762739     1.58000
O617        O  0.00823538  0.40381729  0.42987718    -0.81500
O618        O  0.01001961  0.51674641  0.42136024    -0.75700
O619        O  0.10490531  0.57239858  0.49168771    -0.81600
O620        O  0.97241920  0.53846944  0.61366979    -0.83300
O621        O  0.91275548  0.42919444  0.50270697    -0.81600
C622        C  0.02647151  0.53924445  0.43505805     0.86600
O623        O  0.97132548  0.46542432  0.46494655    -0.88700
O624        O  0.04584188  0.46058124  0.46549112    -0.88900
O625        O  0.02766669  0.42356596  0.50131128    -0.75900
Mg626      Mg  0.04730905  0.57120716  0.49469107     1.58000
O627        O  0.12438514  0.53443339  0.45704003    -0.83300
H628        H  0.94178136  0.56925630  0.51057763    -0.07000
O629        O  0.97306406  0.46499695  0.53878082    -0.88600
H630        H  0.99499815  0.43385345  0.57069182    -0.06800
H631        H  0.94006138  0.48652546  0.43253939    -0.07000
C632        C  0.99191410  0.45897402  0.56226593     0.86500
C633        C  0.96728217  0.56117325  0.51395687     0.87100
C634        C  0.94744986  0.48368632  0.45815625     0.87200
H635        H  0.07648547  0.42937347  0.48922143    -0.07000
O636        O  0.08743720  0.49988265  0.51720416    -0.76000
Mg637      Mg  0.97027020  0.42813523  0.50224732     1.58000
H638        H  0.08028849  0.51395025  0.56490212    -0.07000
C639        C  0.94703873  0.52035698  0.61813303     0.92200
O640        O  0.89242338  0.46507270  0.53890498    -0.83200
C641        C  0.88830615  0.44153950  0.51888822     0.92200
O642        O  0.04772243  0.61308887  0.53095441    -0.83200
Mg643      Mg  0.08361430  0.49677462  0.46039800     1.58200
O644        O  0.93395982  0.50472312  0.59439363    -0.81600
O645        O  0.04679570  0.45883928  0.38548577    -0.83300
O646        O  0.03311559  0.46963156  0.03671526    -0.88800
C647        C  0.03426885  0.56544531  0.00938427     0.87200
Mg648      Mg  0.03854128  0.43133848  0.00127145     1.58100
O649        O  0.95531593  0.53748414  0.03200695    -0.88600
O650        O  0.99674087  0.48648658  0.07423219    -0.75900
C651        C  0.93692862  0.47762185  0.87974443     0.92200
O652        O  0.07317486  0.50507562  0.97712960    -0.75700
O653        O  0.96302783  0.46027435  0.88435071    -0.83200
Mg654      Mg  0.06900528  0.50817542  0.03377973     1.58000
C655        C  0.87282380  0.55641661  0.97931350     0.92200
O656        O  0.06874908  0.51144247  0.09068182    -0.81500
H657        H  0.92550556  0.51533271  0.06519596    -0.06800
C658        C  0.97675234  0.54084728  0.93437844     0.87100
O659        O  0.98178132  0.42495651  0.00055026    -0.76000
O660        O  0.02920341  0.54277266  0.02949679    -0.88800
O661        O  0.89628354  0.57184631  0.99333851    -0.81600
C662        C  0.97499210  0.62336121  0.05042911     0.92300
C663        C  0.05514296  0.52784903  0.11401469     0.92100
Mg664      Mg  0.92266755  0.49593812  0.96136496     1.58000
O665        O  0.92202806  0.49216746  0.90374534    -0.81500
O666        O  0.91981001  0.49944457  0.01812497    -0.75700
O667        O  0.98899479  0.59925027  0.06538089    -0.81600
O668        O  0.11351807  0.47319534  0.03525780    -0.83300
O669        O  0.00502090  0.40623766  0.92742760    -0.81600
C670        C  0.93303785  0.51784579  0.03945286     0.86600
O671        O  0.96276442  0.46139998  0.96465762    -0.88700
O672        O  0.95806701  0.53476954  0.95826060    -0.88900
O673        O  0.99497506  0.51890011  0.92096376    -0.75900
Mg674      Mg  0.99236339  0.54279656  0.06833849     1.58000
O675        O  0.95458902  0.61820945  0.02708941    -0.83300
H676        H  0.01197640  0.43907714  0.06971803    -0.07000
O677        O  0.03676539  0.46814777  0.96306089    -0.88600
H678        H  0.06728273  0.48950157  0.92996831    -0.06800
H679        H  0.93316353  0.42907363  0.98779406    -0.07000
C680        C  0.05953816  0.48718944  0.95566380     0.86500
C681        C  0.01429504  0.46401681  0.06066708     0.87100
C682        C  0.95818268  0.43801281  0.98403096     0.87200
H683        H  0.97856831  0.56588409  0.92545250    -0.07000
O684        O  0.01096042  0.57849334  0.99248282    -0.76000
Mg685      Mg  0.00001158  0.46289763  0.92621616     1.58000
H686        H  0.05950631  0.57363017  0.00521918    -0.07000
C687        C  0.11920968  0.44840932  0.01703212     0.92200
O688        O  0.04181183  0.38890028  0.96494753    -0.83200
C689        C  0.02264108  0.38341466  0.94071580     0.92200
O690        O  0.03006729  0.54650969  0.10919595    -0.83200
Mg691      Mg  0.95411120  0.57361611  0.99289468     1.58200
O692        O  0.09597718  0.43365019  0.00210983    -0.81600
O693        O  0.87828334  0.53121650  0.96150633    -0.83300
C694        C  0.12017268  0.50280380  0.24348667    -0.03000
O695        O  0.53598453  0.54807407  0.47497359    -0.88800
C696        C  0.43828757  0.52356709  0.46647399     0.87200
Mg697      Mg  0.57564144  0.51351248  0.47143125     1.58100
O698        O  0.46316621  0.54004548  0.54762156    -0.88600
O699        O  0.51624548  0.58404063  0.51037813    -0.75900
C700        C  0.52036553  0.38715444  0.55991818     0.92200
O701        O  0.50503973  0.49218841  0.42878766    -0.75700
O702        O  0.54152115  0.39325390  0.53710298    -0.83200
Mg703      Mg  0.50025567  0.54765619  0.43580031     1.58000
C704        C  0.43911907  0.48004361  0.62671235     0.92200
O705        O  0.49584483  0.60294167  0.43756340    -0.81500
H706        H  0.48402806  0.56972188  0.58042450    -0.06800
C707        C  0.46031129  0.44612101  0.51907383     0.87100
O708        O  0.57757852  0.50826196  0.52809994    -0.76000
O709        O  0.46214406  0.54116849  0.47319575    -0.88800
O710        O  0.42479218  0.49758510  0.60432272    -0.81600
C711        C  0.37852880  0.56472919  0.52897840     0.92300
C712        C  0.47693988  0.62521691  0.44928983     0.92100
Mg713      Mg  0.50157182  0.46600688  0.57782580     1.58000
O714        O  0.50335433  0.40975709  0.57393255    -0.81500
O715        O  0.49871545  0.52203653  0.58484563    -0.75700
O716        O  0.40190913  0.57706330  0.51138474    -0.81600
O717        O  0.53952291  0.55341360  0.39439500    -0.83300
O718        O  0.59991652  0.43658871  0.50191223    -0.81600
C719        C  0.48163705  0.54502592  0.57142065     0.86600
O720        O  0.53944522  0.47210174  0.54107993    -0.88700
O721        O  0.46456182  0.46741860  0.54028515    -0.88900
O722        O  0.48432851  0.43369424  0.50238485    -0.75900
Mg723      Mg  0.45936465  0.57803445  0.51070206     1.58000
O724        O  0.38366483  0.54064276  0.54880240    -0.83300
H725        H  0.56521421  0.57974952  0.49811612    -0.07000
O726        O  0.53954555  0.47578649  0.46745454    -0.88600
H727        H  0.52203103  0.44533445  0.43347369    -0.06800
H728        H  0.56937190  0.49123415  0.57496242    -0.07000
C729        C  0.52272873  0.47007464  0.44269065     0.86500
C730        C  0.54022551  0.57107293  0.49420532     0.87100
C731        C  0.56254123  0.49009841  0.54911282     0.87200
H732        H  0.43521513  0.43847852  0.51389199    -0.07000
O733        O  0.42256084  0.50750775  0.48882019    -0.76000
Mg734      Mg  0.54173375  0.43689585  0.50232011     1.58000
H735        H  0.43088904  0.52141796  0.44086869    -0.07000
C736        C  0.56586519  0.53627533  0.39044418     0.92200
O737        O  0.61943368  0.47755977  0.47020680    -0.83200
C738        C  0.62399016  0.45145004  0.48738447     0.92200
O739        O  0.45667288  0.61970533  0.47305253    -0.83200
Mg740      Mg  0.42575901  0.50307588  0.54602721     1.58200
O741        O  0.57766697  0.51950607  0.41464467    -0.81600
O742        O  0.46398252  0.46176359  0.61967761    -0.83300
C743        C  0.00477302  0.74489564  0.62360625    -0.03000
O744        O  0.29247894  0.76892769  0.78651124    -0.88800
C745        C  0.27234397  0.67105750  0.79088411     0.87200
Mg746      Mg  0.25560425  0.80684507  0.79114774     1.58100
O747        O  0.28859583  0.70171586  0.71075909    -0.88600
O748        O  0.33057285  0.75358790  0.75028678    -0.75900
C749        C  0.13255739  0.75670722  0.69701021     0.92200
O750        O  0.23585054  0.73313502  0.82937408    -0.75700
O751        O  0.13720985  0.77698939  0.72017335    -0.83200
Mg752      Mg  0.29285332  0.73104165  0.82403908     1.58000
C753        C  0.22816007  0.67985750  0.63171490     0.92200
O754        O  0.35042269  0.72809220  0.82316984    -0.81500
H755        H  0.31843001  0.72483570  0.67825484    -0.06800
C756        C  0.19175012  0.69473451  0.73879257     0.87100
O757        O  0.25243560  0.81202147  0.73456069    -0.76000
O758        O  0.28968150  0.69547584  0.78522827    -0.88800
O759        O  0.24708098  0.66563015  0.65298757    -0.81600
C760        C  0.31595134  0.61749914  0.72512758     0.92300
C761        C  0.37471480  0.71292230  0.80923954     0.92100
Mg762      Mg  0.21280046  0.73873889  0.68227306     1.58000
O763        O  0.15607816  0.73861635  0.68601065    -0.81500
O764        O  0.26966151  0.73792091  0.67463851    -0.75700
O765        O  0.32783101  0.64065371  0.74246521    -0.81600
O766        O  0.29417643  0.76780638  0.86689137    -0.83300
O767        O  0.17885957  0.83140560  0.75982868    -0.81600
C768        C  0.29332231  0.72122206  0.68742661     0.86600
O769        O  0.21729821  0.77432948  0.71990195    -0.88700
O770        O  0.21471633  0.70068249  0.71885780    -0.88900
O771        O  0.17698590  0.71732236  0.75517129    -0.75900
Mg772      Mg  0.32723902  0.69741484  0.74684497     1.58000
O773        O  0.29132120  0.62252327  0.70600013    -0.83300
H774        H  0.32399685  0.80060439  0.76518637    -0.07000
O775        O  0.21784578  0.76998975  0.79332856    -0.88600
H776        H  0.18738713  0.74703765  0.82533401    -0.06800
H777        H  0.23711520  0.80607029  0.68721797    -0.07000
C778        C  0.21265947  0.75041636  0.81652087     0.86500
C779        C  0.31612068  0.77543972  0.76769592     0.87100
C780        C  0.23521363  0.79792399  0.71281377     0.87200
H781        H  0.18436717  0.66959098  0.74279703    -0.07000
O782        O  0.25644175  0.65693403  0.76803484    -0.76000
Mg783      Mg  0.17951359  0.77417436  0.75739382     1.58000
H784        H  0.27013331  0.66182607  0.81609445    -0.07000
C785        C  0.27618510  0.79342763  0.87121442     0.92200
O786        O  0.21797213  0.84896687  0.79394363    -0.83200
C787        C  0.19275878  0.85443939  0.77571140     0.92200
O788        O  0.37060118  0.69528606  0.78371170    -0.83200
Mg789      Mg  0.25220458  0.66351772  0.71115748     1.58200
O790        O  0.25970759  0.80671657  0.84767090    -0.81600
O791        O  0.20914855  0.70356888  0.63980985    -0.83300
C792        C  0.49868926  0.74723663  0.88149532    -0.03000
C793        C  0.43555800  0.72877373  0.80625177    -0.02300
C794        C  0.40831705  0.71614029  0.82419676     0.07300
C795        C  0.41141732  0.71091123  0.85814224    -0.02500
C796        C  0.43804919  0.72451446  0.87534412    -0.02500
C797        C  0.46767193  0.73708972  0.85853399     0.07500
C798        C  0.46590398  0.73672627  0.82239202    -0.02700
Br799      Br  0.50204803  0.74480510  0.79133149    -0.01200
Br800      Br  0.43023111  0.73614881  0.75900187    -0.01300
Br801      Br  0.42699207  0.73190285  0.92136890    -0.01200
Br802      Br  0.37764141  0.68553243  0.88143009    -0.01200
C803        C  0.06969739  0.75272709  0.69830953    -0.02300
C804        C  0.09982510  0.75455396  0.68039934     0.07300
C805        C  0.09962078  0.75229670  0.64583339    -0.02500
C806        C  0.06983621  0.74690118  0.62883531    -0.02500
C807        C  0.03761369  0.74714785  0.64582087     0.07500
C808        C  0.03884554  0.74868206  0.68183868    -0.02700
Br809      Br  0.00167215  0.74076728  0.71218373    -0.01200
Br810      Br  0.07131987  0.75437370  0.74636794    -0.01300
Br811      Br  0.07642100  0.74390402  0.58105938    -0.01200
Br812      Br  0.14030432  0.76221023  0.62081793    -0.01200
C813        C  0.10352192  0.52903488  0.15120080    -0.02300
C814        C  0.06943421  0.52479404  0.14755602     0.07300
C815        C  0.05004046  0.51405029  0.17465689    -0.02500
C816        C  0.06484680  0.50645967  0.20573718    -0.02500
C817        C  0.10058750  0.50937357  0.21005310     0.07500
C818        C  0.11926680  0.52000736  0.18095756    -0.02700
Br819      Br  0.16703924  0.51919254  0.17755230    -0.01200
Br820      Br  0.12870340  0.54843361  0.11460239    -0.01300
Br821      Br  0.03355286  0.48921520  0.23819386    -0.01200
Br822      Br  0.00265872  0.50806792  0.16801606    -0.01200
C823        C  0.01536044  0.67820843  0.55207044    -0.02300
C824        C  0.02648946  0.65084911  0.57063437     0.07300
C825        C  0.03286090  0.65420772  0.60424745    -0.02500
C826        C  0.02315875  0.68293930  0.62075142    -0.02500
C827        C  0.01240872  0.71241726  0.60294121     0.07500
C828        C  0.01050456  0.70930328  0.56718713    -0.02700
Br829      Br  0.00367233  0.74527340  0.53611615    -0.01200
Br830      Br  0.00463294  0.67209722  0.50586100    -0.01300
Br831      Br  0.01864272  0.67622623  0.66798386    -0.01200
Br832      Br  0.05427548  0.61804521  0.62808375    -0.01200
C833        C  0.08608398  0.51547341  0.33227835    -0.02300
C834        C  0.08240776  0.48324740  0.34471890     0.07300
C835        C  0.08334050  0.45718573  0.32209121    -0.02500
C836        C  0.08950655  0.46316707  0.28783990    -0.02500
C837        C  0.09650670  0.49591510  0.27534240     0.07500
C838        C  0.08769475  0.52140201  0.29788455    -0.02700
Br839      Br  0.05504051  0.55394753  0.28513086    -0.01200
Br840      Br  0.08355518  0.55306139  0.36114039    -0.01300
Br841      Br  0.08416850  0.42567944  0.25931171    -0.01200
Br842      Br  0.07976551  0.41248095  0.33864817    -0.01200
C843        C  0.49930049  0.70995648  0.93876264    -0.02300
C844        C  0.50204240  0.71396462  0.90291989     0.07300
C845        C  0.50641436  0.68365558  0.88451448    -0.02500
C846        C  0.50550918  0.65265009  0.89998933    -0.02500
C847        C  0.50397462  0.64981778  0.93436041     0.07500
C848        C  0.50176252  0.67812098  0.95374998    -0.02700
Br849      Br  0.50078963  0.67218712  0.00147282    -0.01200
Br850      Br  0.48955293  0.74464024  0.97011125    -0.01300
Br851      Br  0.50864552  0.61276909  0.87392064    -0.01200
Br852      Br  0.52045530  0.68186946  0.83853284    -0.01200
C853        C  0.46373661  0.32629289  0.09813390    -0.02300
C854        C  0.49220986  0.34238461  0.08628739     0.07300
C855        C  0.52062721  0.32331488  0.07878841    -0.02500
C856        C  0.52255546  0.28968644  0.08825114    -0.02500
C857        C  0.49477236  0.27312898  0.10391767     0.07500
C858        C  0.46396651  0.29185027  0.10326597    -0.02700
Br859      Br  0.42055844  0.27323129  0.09857922    -0.01200
Br860      Br  0.42445886  0.35174905  0.10997507    -0.01300
Br861      Br  0.56384822  0.26770860  0.07716428    -0.01200
Br862      Br  0.55679018  0.34336375  0.05391075    -0.01200
C863        C  0.51086281  0.82957793  0.93221638    -0.02300
C864        C  0.48171701  0.84740543  0.92627379     0.07300
C865        C  0.45541263  0.83243914  0.91036805    -0.02500
C866        C  0.45993459  0.80158977  0.89488939    -0.02500
C867        C  0.48991386  0.78121791  0.90064888     0.07500
C868        C  0.51487294  0.79701888  0.92080689    -0.02700
Br869      Br  0.55592238  0.77678227  0.93559843    -0.01200
Br870      Br  0.54477848  0.85020895  0.95870918    -0.01300
Br871      Br  0.42627145  0.79658709  0.86078440    -0.01200
Br872      Br  0.41331450  0.85658174  0.90804957    -0.01200
C873        C  0.51441925  0.17227208  0.05843578    -0.02300
C874        C  0.51673792  0.14387602  0.07871614     0.07300
C875        C  0.51478686  0.14665271  0.11321896    -0.02500
C876        C  0.50966797  0.17747058  0.12786200    -0.02500
C877        C  0.50702377  0.20741584  0.10799851     0.07500
C878        C  0.50844888  0.20362500  0.07238419    -0.02700
Br879      Br  0.49378727  0.23681538  0.04056792    -0.01200
Br880      Br  0.51619241  0.16770142  0.01055448    -0.01300
Br881      Br  0.50909257  0.17652674  0.17600283    -0.01200
Br882      Br  0.52268531  0.10795159  0.14098605    -0.01200
C883        C  0.33300438  0.08333207  0.51651108    -0.02300
C884        C  0.34483413  0.07904514  0.48429359     0.07300
C885        C  0.32299484  0.08731880  0.45813220    -0.02500
C886        C  0.29064982  0.10083016  0.46542150    -0.02500
C887        C  0.28264668  0.11264959  0.49848511     0.07500
C888        C  0.30962854  0.10784175  0.52166139    -0.02700
Br889      Br  0.33003254  0.14107251  0.54898357    -0.01200
Br890      Br  0.35366437  0.06241525  0.55462857    -0.01300
Br891      Br  0.25930554  0.10151529  0.42920013    -0.01200
Br892      Br  0.33712785  0.08052430  0.41288820    -0.01200
C893        C  0.02435352  0.82994426  0.57822007    -0.02300
C894        C  0.99317457  0.84521084  0.57646086     0.07300
C895        C  0.96541252  0.82510842  0.58267977    -0.02500
C896        C  0.97013228  0.79099306  0.58960624    -0.02500
C897        C  0.00167343  0.77897380  0.60260607     0.07500
C898        C  0.02784131  0.80327080  0.59993948    -0.02700
Br899      Br  0.05560723  0.81876930  0.63551753    -0.01200
Br900      Br  0.06340040  0.84880965  0.55759955    -0.01300
Br901      Br  0.93261732  0.76348254  0.57974739    -0.01200
Br902      Br  0.92169122  0.84418298  0.58693819    -0.01200
C903        C  0.15884746  0.10230401  0.53879046    -0.02300
C904        C  0.15203859  0.07877443  0.51515321     0.07300
C905        C  0.17755282  0.06814166  0.49377700    -0.02500
C906        C  0.21011775  0.08043931  0.49673571    -0.02500
C907        C  0.21578985  0.11063364  0.51381274     0.07500
C908        C  0.18896711  0.11988307  0.53712822    -0.02700
Br909      Br  0.18676440  0.15849726  0.56539763    -0.01200
Br910      Br  0.12440508  0.11257354  0.57155992    -0.01300
Br911      Br  0.24401213  0.04700055  0.48994337    -0.01200
Br912      Br  0.16858876  0.03388194  0.46253320    -0.01200
C913        C  0.41611789  0.98026025  0.16606759    -0.02300
C914        C  0.41852904  0.01078268  0.15008252     0.07300
C915        C  0.40360462  0.03835487  0.16395896    -0.02500
C916        C  0.38283165  0.03509524  0.19209337    -0.02500
C917        C  0.38340841  0.00509855  0.21267394     0.07500
C918        C  0.39999099  0.97727191  0.19728986    -0.02700
Br919      Br  0.40321841  0.93381933  0.21719689    -0.01200
Br920      Br  0.43687913  0.94253409  0.14511393    -0.01300
Br921      Br  0.34907683  0.07001735  0.19154351    -0.01200
Br922      Br  0.40865107  0.08051334  0.14102735    -0.01200
C923        C  0.36460563  0.99643822  0.31158757    -0.02300
C924        C  0.38332150  0.99565012  0.28039665     0.07300
C925        C  0.41927700  0.99231933  0.28345777    -0.02500
C926        C  0.43423931  0.99073404  0.31523954    -0.02500
C927        C  0.41486633  0.99251273  0.34419297     0.07500
C928        C  0.38039838  0.99478703  0.34241064    -0.02700
Br929      Br  0.35455273  0.99335115  0.38360549    -0.01200
Br930      Br  0.31642478  0.99560292  0.31536034    -0.01300
Br931      Br  0.48221290  0.98832084  0.32014204    -0.01200
Br932      Br  0.45158602  0.99313927  0.24738811    -0.01200
C933        C  0.20097147  0.41834966  0.97884763    -0.02300
C934        C  0.21560160  0.39871338  0.00550196     0.07300
C935        C  0.19464598  0.39710908  0.03552084    -0.02500
C936        C  0.16818616  0.41946033  0.04061084    -0.02500
C937        C  0.15357778  0.43522515  0.01367591     0.07500
C938        C  0.16959933  0.43434025  0.98275451    -0.02700
Br939      Br  0.14831476  0.45701540  0.94591775    -0.01200
Br940      Br  0.22134929  0.42628031  0.93589186    -0.01300
Br941      Br  0.14831098  0.42526311  0.08426964    -0.01200
Br942      Br  0.19004465  0.36057370  0.06704181    -0.01200
C943        C  0.29029867  0.42930704  0.99855035    -0.02300
C944        C  0.28411296  0.39430643  0.99846344     0.07300
C945        C  0.31351672  0.37307215  0.99918438    -0.02500
C946        C  0.34548053  0.38544275  0.00338288    -0.02500
C947        C  0.35038420  0.41912193  0.00331844     0.07500
C948        C  0.32335360  0.44100847  0.00036047    -0.02700
Br949      Br  0.33237091  0.48770058  0.00086296    -0.01200
Br950      Br  0.25674240  0.46380737  0.99814705    -0.01300
Br951      Br  0.38387380  0.35590596  0.00644988    -0.01200
Br952      Br  0.31336544  0.32703454  0.98789584    -0.01200
C953        C  0.17659743  0.42628228  0.26782933    -0.02300
C954        C  0.17675411  0.40699388  0.23906957     0.07300
C955        C  0.16332138  0.42030610  0.20995455    -0.02500
C956        C  0.14269484  0.44854831  0.21123267    -0.02500
C957        C  0.14279772  0.47022239  0.23986218     0.07500
C958        C  0.16108146  0.45771975  0.26818509    -0.02700
Br959      Br  0.16487041  0.48204511  0.30933348    -0.01200
Br960      Br  0.19951890  0.40994532  0.30683376    -0.01300
Br961      Br  0.10821872  0.44589629  0.17763049    -0.01200
Br962      Br  0.16965176  0.39731943  0.16835758    -0.01200
C963        C  0.20848265  0.16935751  0.42765988    -0.02300
C964        C  0.23625369  0.18103676  0.41022251     0.07300
C965        C  0.26589596  0.18591711  0.42787427    -0.02500
C966        C  0.26914524  0.17458235  0.46118410    -0.02500
C967        C  0.24218032  0.15826555  0.47831270     0.07500
C968        C  0.21053791  0.16143485  0.46180870    -0.02700
Br969      Br  0.16901132  0.16874979  0.48469372    -0.01200
Br970      Br  0.16737094  0.16258040  0.40436055    -0.01300
Br971      Br  0.31101988  0.18335329  0.48192940    -0.01200
Br972      Br  0.30253724  0.20826415  0.40597289    -0.01200
C973        C  0.40943715  0.20921461  0.15330006    -0.02300
C974        C  0.40157988  0.23093452  0.17854590     0.07300
C975        C  0.42707363  0.24934447  0.19241045    -0.02500
C976        C  0.46021414  0.24605390  0.18058194    -0.02500
C977        C  0.46677857  0.23320161  0.14804786     0.07500
C978        C  0.43999453  0.21221488  0.13586523    -0.02700
Br979      Br  0.43731613  0.19114522  0.09289630    -0.01200
Br980      Br  0.37585273  0.17777689  0.14058489    -0.01300
Br981      Br  0.49285496  0.24670478  0.21560620    -0.01200
Br982      Br  0.41700478  0.27671165  0.22994888    -0.01200
C983        C  0.35107991  0.09158693  0.27599322    -0.02300
C984        C  0.31796838  0.09872680  0.26974447     0.07300
C985        C  0.29672427  0.07395871  0.25918347    -0.02500
C986        C  0.30896061  0.04154120  0.25378708    -0.02500
C987        C  0.34448125  0.03467505  0.25488357     0.07500
C988        C  0.36500511  0.06181597  0.26549128    -0.02700
Br989      Br  0.41274483  0.06424899  0.25956839    -0.01200
Br990      Br  0.37797628  0.12490778  0.29655120    -0.01300
Br991      Br  0.27462553  0.00973356  0.24568087    -0.01200
Br992      Br  0.25072163  0.08570821  0.25097081    -0.01200
C993        C  0.25677453  0.30684251  0.07214974    -0.02300
C994        C  0.26635068  0.32625243  0.09892496     0.07300
C995        C  0.27407381  0.35882876  0.09324717    -0.02500
C996        C  0.26523561  0.37430805  0.06330306    -0.02500
C997        C  0.25515562  0.35595005  0.03414332     0.07500
C998        C  0.25310032  0.32064342  0.03953217    -0.02700
Br999      Br  0.24468215  0.28858996  0.00573122    -0.01200
Br1000     Br  0.24832010  0.26096671  0.08126981    -0.01300
Br1001     Br  0.26105471  0.42135060  0.06836115    -0.01200
Br1002     Br  0.29534415  0.38269123  0.12855000    -0.01200
C1003       C  0.99338956  0.28743672  0.43586826    -0.02300
C1004       C  0.99238978  0.28256770  0.40028789     0.07300
C1005       C  0.99015018  0.31244827  0.38016024    -0.02500
C1006       C  0.99132983  0.34392744  0.39387661    -0.02500
C1007       C  0.99177676  0.34774083  0.42822264     0.07500
C1008       C  0.99261620  0.31971008  0.44907867    -0.02700
Br1009     Br  0.99524912  0.32614324  0.49662748    -0.01200
Br1010     Br  0.99799911  0.25299728  0.46938709    -0.01300
Br1011     Br  0.98901673  0.38261021  0.36493225    -0.01200
Br1012     Br  0.97800348  0.31296108  0.33381314    -0.01200
C1013       C  0.03752048  0.16412725  0.41483951    -0.02300
C1014       C  0.00981437  0.14847507  0.42825054     0.07300
C1015       C  0.98014635  0.16632390  0.43230085    -0.02500
C1016       C  0.97728219  0.19926362  0.42083413    -0.02500
C1017       C  0.00356985  0.21488490  0.40140546     0.07500
C1018       C  0.03376890  0.19434056  0.39759805    -0.02700
Br1019     Br  0.06845586  0.19686137  0.36330767    -0.01200
Br1020     Br  0.08051502  0.14170220  0.41697737    -0.01300
Br1021     Br  0.93564331  0.21998370  0.43372953    -0.01200
Br1022     Br  0.94365657  0.14532831  0.45617986    -0.01200
C1023       C  0.05836348  0.26875830  0.37862175    -0.02300
C1024       C  0.02963976  0.25782316  0.35988876     0.07300
C1025       C  0.03467268  0.25771688  0.32405657    -0.02500
C1026       C  0.06710124  0.26300395  0.31021069    -0.02500
C1027       C  0.09361320  0.27278064  0.33010936     0.07500
C1028       C  0.08775269  0.27947833  0.36317405    -0.02700
Br1029     Br  0.12283293  0.30019374  0.38803231    -0.01200
Br1030     Br  0.06490314  0.26122414  0.42547246    -0.01300
Br1031     Br  0.07653232  0.25598009  0.26369121    -0.01200
Br1032     Br  0.00095094  0.25019982  0.29105777    -0.01200
C1033       C  0.89258721  0.99463015  0.15571632    -0.02300
C1034       C  0.92196730  0.97661821  0.15473959     0.07300
C1035       C  0.93168195  0.96140785  0.18481586    -0.02500
C1036       C  0.91283725  0.96740083  0.21452244    -0.02500
C1037       C  0.89113921  0.99609076  0.21721634     0.07500
C1038       C  0.88260700  0.01030528  0.18483281    -0.02700
Br1039     Br  0.85696346  0.04908828  0.17196385    -0.01200
Br1040     Br  0.86080120  0.98855941  0.12046695    -0.01300
Br1041     Br  0.91797116  0.93466480  0.24951038    -0.01200
Br1042     Br  0.96797723  0.92994109  0.18524299    -0.01200
C1043       C  0.94151388  0.99626853  0.32028985    -0.02300
C1044       C  0.92594632  0.01018187  0.34796262     0.07300
C1045       C  0.89772030  0.02970291  0.34350668    -0.02500
C1046       C  0.88097659  0.03016192  0.31270737    -0.02500
C1047       C  0.89375965  0.01165266  0.28405485     0.07500
C1048       C  0.92799380  0.00089095  0.28817358    -0.02700
Br1049     Br  0.96244737  0.00376838  0.25417028    -0.01200
Br1050     Br  0.98344553  0.97341765  0.32646339    -0.01300
Br1051     Br  0.83949947  0.05469830  0.31637576    -0.01200
Br1052     Br  0.88044221  0.05317269  0.38210528    -0.01200
C1053       C  0.85373656  0.09752180  0.23448766    -0.02300
C1054       C  0.81898515  0.09977141  0.23451738     0.07300
C1055       C  0.79976032  0.07172014  0.24062955    -0.02500
C1056       C  0.81524341  0.04115608  0.24812916    -0.02500
C1057       C  0.85114043  0.03757178  0.24592205     0.07500
C1058       C  0.86977216  0.06736554  0.24082682    -0.02700
Br1059     Br  0.91766804  0.06856778  0.23736555    -0.01200
Br1060     Br  0.87963293  0.13555332  0.22064702    -0.01300
Br1061     Br  0.78601655  0.00977049  0.27053499    -0.01200
Br1062     Br  0.75169793  0.07606154  0.24162954    -0.01200
C1063       C  0.89939324  0.24508591  0.36038988    -0.02300
C1064       C  0.89770673  0.22466807  0.33295688     0.07300
C1065       C  0.92704053  0.20741625  0.32414357    -0.02500
C1066       C  0.95757095  0.21349171  0.34080786    -0.02500
C1067       C  0.96163756  0.24184779  0.36181787     0.07500
C1068       C  0.92992862  0.25830180  0.37024544    -0.02700
Br1069     Br  0.92063609  0.29574274  0.39906642    -0.01200
Br1070     Br  0.86075314  0.24789548  0.39029371    -0.01300
Br1071     Br  0.99209868  0.18080253  0.33355970    -0.01200
Br1072     Br  0.92499070  0.17231497  0.29232556    -0.01200
C1073       C  0.56979390  0.28984268  0.17613282    -0.02300
C1074       C  0.59643935  0.26721559  0.17834077     0.07300
C1075       C  0.59075589  0.23505032  0.16833783    -0.02500
C1076       C  0.56392075  0.22806422  0.14772562    -0.02500
C1077       C  0.53383674  0.24870654  0.14760003     0.07500
C1078       C  0.53828188  0.28022851  0.16353159    -0.02700
Br1079     Br  0.50297822  0.31278192  0.16849387    -0.01200
Br1080     Br  0.57666980  0.33460977  0.18975000    -0.01300
Br1081     Br  0.57978531  0.19689893  0.11435700    -0.01200
Br1082     Br  0.62033359  0.19949157  0.18221364    -0.01200
C1083       C  0.01169955  0.32266977  0.94677688    -0.02300
C1084       C  0.02063800  0.34978754  0.92683183     0.07300
C1085       C  0.02482331  0.34572690  0.89275382    -0.02500
C1086       C  0.01710487  0.31572486  0.87775613    -0.02500
C1087       C  0.00711233  0.28690636  0.89693821     0.07500
C1088       C  0.00554104  0.29142231  0.93267816    -0.02700
Br1089     Br  0.99785370  0.25701667  0.96547442    -0.01200
Br1090     Br  0.00695869  0.32919257  0.99418511    -0.01300
Br1091     Br  0.01457019  0.31918301  0.83004896    -0.01200
Br1092     Br  0.04077358  0.38267393  0.86616363    -0.01200
C1093       C  0.95784007  0.18086093  0.92927467    -0.02300
C1094       C  0.98429586  0.15833653  0.93338554     0.07300
C1095       C  0.01610296  0.16807284  0.92389492    -0.02500
C1096       C  0.01966395  0.19363566  0.90090182    -0.02500
C1097       C  0.99538573  0.22051482  0.89957324     0.07500
C1098       C  0.96391616  0.21279097  0.91592490    -0.02700
Br1099     Br  0.92769567  0.24393794  0.92195841    -0.01200
Br1100     Br  0.91301580  0.16762305  0.94070089    -0.01300
Br1101     Br  0.04858368  0.17733278  0.86542620    -0.01200
Br1102     Br  0.05513499  0.14392514  0.93889295    -0.01200
C1103       C  0.09623174  0.24008091  0.85963071    -0.02300
C1104       C  0.09873772  0.23743260  0.82522919     0.07300
C1105       C  0.07003861  0.24160650  0.80593751    -0.02500
C1106       C  0.03809126  0.24653060  0.82095079    -0.02500
C1107       C  0.03450810  0.24931724  0.85677025     0.07500
C1108       C  0.06564969  0.24807541  0.87509919    -0.02700
Br1109     Br  0.06935400  0.25116058  0.92284328    -0.01200
Br1110     Br  0.13423168  0.22617324  0.88631087    -0.01300
Br1111     Br  0.00239187  0.25143921  0.78907797    -0.01200
Br1112     Br  0.07542531  0.24191197  0.75808293    -0.01200
C1113       C  0.25405238  0.35544974  0.90280925    -0.02300
C1114       C  0.23143402  0.32986894  0.89940001     0.07300
C1115       C  0.21104669  0.32267001  0.92732584    -0.02500
C1116       C  0.21525350  0.33921477  0.95799836    -0.02500
C1117       C  0.24445308  0.35837406  0.96463323     0.07500
C1118       C  0.26447095  0.36560485  0.93451016    -0.02700
Br1119     Br  0.30345833  0.39376182  0.92879564    -0.01200
Br1120     Br  0.26365720  0.38335963  0.86405916    -0.01300
Br1121     Br  0.17834762  0.33537355  0.98899385    -0.01200
Br1122     Br  0.17398436  0.29321216  0.92321560    -0.01200
C1123       C  0.26775911  0.13414512  0.60317691    -0.02300
C1124       C  0.27219724  0.16744777  0.60913599     0.07300
C1125       C  0.26661544  0.19087371  0.58370598    -0.02500
C1126       C  0.25773890  0.18109700  0.55140386    -0.02500
C1127       C  0.25552294  0.14672289  0.54374343     0.07500
C1128       C  0.25906126  0.12360891  0.57144997    -0.02700
Br1129     Br  0.25446868  0.07623697  0.56804676    -0.01200
Br1130     Br  0.27656527  0.10230893  0.63850715    -0.01300
Br1131     Br  0.24192200  0.21631085  0.52262165    -0.01200
Br1132     Br  0.26802856  0.23714850  0.59438724    -0.01200
C1133       C  0.51638274  0.31280172  0.61622385    -0.02300
C1134       C  0.50725748  0.28656037  0.59416206     0.07300
C1135       C  0.50111972  0.29556886  0.55998954    -0.02500
C1136       C  0.50638643  0.32836697  0.54889282    -0.02500
C1137       C  0.51575244  0.35289797  0.57120720     0.07500
C1138       C  0.51981289  0.34525892  0.60476998    -0.02700
Br1139     Br  0.53267261  0.37954706  0.63507559    -0.01200
Br1140     Br  0.52764665  0.30588110  0.66244728    -0.01300
Br1141     Br  0.49758531  0.34096843  0.50330439    -0.01200
Br1142     Br  0.47843970  0.26777107  0.52898465    -0.01200
C1143       C  0.45934289  0.17104096  0.58262837    -0.02300
C1144       C  0.48652003  0.15372273  0.56910355     0.07300
C1145       C  0.51485871  0.17134208  0.55928473    -0.02500
C1146       C  0.51733733  0.20521551  0.56592016    -0.02500
C1147       C  0.49293406  0.22197260  0.58615569     0.07500
C1148       C  0.46171369  0.20505989  0.58923250    -0.02700
Br1149     Br  0.41953513  0.22777606  0.59085387    -0.01200
Br1150     Br  0.41907168  0.14762120  0.59378285    -0.01300
Br1151     Br  0.55195025  0.22757263  0.54175656    -0.01200
Br1152     Br  0.55067801  0.14873612  0.53602107    -0.01200
C1153       C  0.44694565  0.28161566  0.63423338    -0.02300
C1154       C  0.47418985  0.25734011  0.63809054     0.07300
C1155       C  0.47122966  0.23806644  0.66815484    -0.02500
C1156       C  0.43984036  0.23376102  0.68383784    -0.02500
C1157       C  0.41453301  0.25722280  0.67924091     0.07500
C1158       C  0.42016833  0.28321504  0.65724110    -0.02700
Br1159     Br  0.38844674  0.31980679  0.65715250    -0.01200
Br1160     Br  0.43751138  0.31024669  0.59637727    -0.01300
Br1161     Br  0.43368151  0.19907967  0.71615377    -0.01200
Br1162     Br  0.50614510  0.23617653  0.70074765    -0.01200
C1163       C  0.25728844  0.81095925  0.96254220    -0.02300
C1164       C  0.25917701  0.84673377  0.96324771     0.07300
C1165       C  0.27169655  0.86188477  0.93282098    -0.02500
C1166       C  0.28137527  0.84326599  0.90510865    -0.02500
C1167       C  0.27464528  0.80982494  0.90391158     0.07500
C1168       C  0.26300385  0.79363313  0.93252968    -0.02700
Br1169     Br  0.25466840  0.74694531  0.92989081    -0.01200
Br1170     Br  0.25220993  0.78167421  0.00060010    -0.01300
Br1171     Br  0.30384336  0.86373534  0.86734363    -0.01200
Br1172     Br  0.27103031  0.90848651  0.92362389    -0.01200
C1173       C  0.31623469  0.87369218  0.99934487    -0.02300
C1174       C  0.28445432  0.89101162  0.99730420     0.07300
C1175       C  0.28625239  0.92674578  0.99748159    -0.02500
C1176       C  0.31681324  0.94262020  0.00381172    -0.02500
C1177       C  0.34637455  0.92446610  0.00800318     0.07500
C1178       C  0.34610082  0.89025722  0.00522065    -0.02700
Br1179     Br  0.38669540  0.86509516  0.01480657    -0.01200
Br1180     Br  0.32161254  0.82633745  0.00015502    -0.01300
Br1181     Br  0.31908109  0.99022486  0.00506893    -0.01200
Br1182     Br  0.25093811  0.95749591  0.98485931    -0.01200
C1183       C  0.19743484  0.89026253  0.95876921    -0.02300
C1184       C  0.21766455  0.89103218  0.98870757     0.07300
C1185       C  0.20317864  0.91009629  0.01555792    -0.02500
C1186       C  0.17247997  0.92704735  0.01214407    -0.02500
C1187       C  0.15618345  0.92825144  0.98176944     0.07500
C1188       C  0.16976462  0.91168100  0.95472289    -0.02700
Br1189     Br  0.14760565  0.91631057  0.91235270    -0.01200
Br1190     Br  0.19711453  0.85595463  0.92551804    -0.01300
Br1191     Br  0.15284338  0.95108245  0.04887745    -0.01200
Br1192     Br  0.22439751  0.91713798  0.05755333    -0.01200
C1193       C  0.20761324  0.81956784  0.06806153    -0.02300
C1194       C  0.23305163  0.81647958  0.09156208     0.07300
C1195       C  0.26454457  0.82830177  0.08340020    -0.02500
C1196       C  0.26850427  0.85021711  0.05673105    -0.02500
C1197       C  0.24530202  0.85040552  0.02915286     0.07500
C1198       C  0.21407796  0.83407215  0.03644834    -0.02700
Br1199     Br  0.17942613  0.82800058  0.00417389    -0.01200
Br1200     Br  0.16365977  0.80369288  0.07917468    -0.01300
Br1201     Br  0.29820101  0.88504681  0.07032363    -0.01200
Br1202     Br  0.30283660  0.81564631  0.10984585    -0.01200
C1203       C  0.31022145  0.93052209  0.20412961    -0.02300
C1204       C  0.30775288  0.90661697  0.22953335     0.07300
C1205       C  0.31712800  0.91532499  0.26133022    -0.02500
C1206       C  0.33939984  0.94088734  0.26536685    -0.02500
C1207       C  0.34014618  0.96851211  0.24197013     0.07500
C1208       C  0.32333308  0.96211014  0.21092705    -0.02700
Br1209     Br  0.31784957  0.99429249  0.17559500    -0.01200
Br1210     Br  0.29634962  0.91989985  0.15975668    -0.01300
Br1211     Br  0.37422215  0.92517002  0.29533015    -0.01200
Br1212     Br  0.30163707  0.89072121  0.29986686    -0.01200
C1213       C  0.12354628  0.56778594  0.24953601    -0.02300
C1214       C  0.14095318  0.53648159  0.24960401     0.07300
C1215       C  0.17673677  0.53954398  0.25488097    -0.02500
C1216       C  0.19079426  0.57012258  0.26466910    -0.02500
C1217       C  0.17056970  0.59804749  0.27042173     0.07500
C1218       C  0.13640108  0.59532079  0.26532014    -0.02700
Br1219     Br  0.10635973  0.63052638  0.27847557    -0.01200
Br1220     Br  0.08942256  0.58118789  0.21802921    -0.01300
Br1221     Br  0.23863264  0.57465879  0.26846916    -0.01200
Br1222     Br  0.21049109  0.50668095  0.24348396    -0.01200
C1223       C  0.03566801  0.71812333  0.15861807    -0.02300
C1224       C  0.02948402  0.74722521  0.13877430     0.07300
C1225       C  0.05340852  0.77298432  0.14328849    -0.02500
C1226       C  0.08502679  0.76627058  0.15742300    -0.02500
C1227       C  0.09267984  0.73518264  0.17157628     0.07500
C1228       C  0.06700823  0.71192974  0.17369542    -0.02700
Br1229     Br  0.07561168  0.66956252  0.19436709    -0.01200
Br1230     Br  0.00277828  0.68492721  0.16596080    -0.01300
Br1231     Br  0.11670884  0.80178201  0.16071452    -0.01200
Br1232     Br  0.04148236  0.81936741  0.14272749    -0.01200
C1233       C  0.02345078  0.69513103  0.08686866    -0.02300
C1234       C  0.99838282  0.72062741  0.08826820     0.07300
C1235       C  0.97242593  0.71703809  0.06429398    -0.02500
C1236       C  0.96423283  0.68562668  0.05199287    -0.02500
C1237       C  0.98440355  0.65787028  0.05971188     0.07500
C1238       C  0.01581344  0.66386138  0.07413019    -0.02700
Br1239     Br  0.05056547  0.63025140  0.07393857    -0.01200
Br1240     Br  0.07077539  0.70312957  0.09296737    -0.01300
Br1241     Br  0.92235124  0.68097184  0.02908477    -0.01200
Br1242     Br  0.94724567  0.75390387  0.04688332    -0.01200
C1243       C  0.03663093  0.82275842  0.06297971    -0.02300
C1244       C  0.01552900  0.84961118  0.06996094     0.07300
C1245       C  0.98377855  0.84311143  0.08361173    -0.02500
C1246       C  0.97585302  0.81131588  0.09596756    -0.02500
C1247       C  0.99930595  0.78407324  0.09339534     0.07500
C1248       C  0.02660922  0.79043936  0.07083130    -0.02700
Br1249     Br  0.04438390  0.75847301  0.04054988    -0.01200
Br1250     Br  0.08068973  0.82938568  0.04429402    -0.01300
Br1251     Br  0.92993116  0.80820546  0.10906331    -0.01200
Br1252     Br  0.94937006  0.87756444  0.08283852    -0.01200
C1253       C  0.22626065  0.67949446  0.53637742    -0.02300
C1254       C  0.23081428  0.64548697  0.53015141     0.07300
C1255       C  0.21991414  0.62500732  0.55689086    -0.02500
C1256       C  0.22345688  0.63501690  0.58985942    -0.02500
C1257       C  0.22762289  0.66844361  0.59666427     0.07500
C1258       C  0.22660803  0.69099123  0.56951418    -0.02700
Br1259     Br  0.22791615  0.73771248  0.57678668    -0.01200
Br1260     Br  0.20345486  0.70752657  0.50510555    -0.01300
Br1261     Br  0.21778127  0.60301850  0.62512817    -0.01200
Br1262     Br  0.18223136  0.59720130  0.55053424    -0.01200
C1263       C  0.30861565  0.62785172  0.52999871    -0.02300
C1264       C  0.28075266  0.60972889  0.51883873     0.07300
C1265       C  0.28408341  0.57518134  0.52432071    -0.02500
C1266       C  0.31604097  0.56025940  0.52544724    -0.02500
C1267       C  0.34476909  0.57973333  0.52691342     0.07500
C1268       C  0.34071046  0.61385462  0.52997575    -0.02700
Br1269     Br  0.37851542  0.64187344  0.53707255    -0.01200
Br1270     Br  0.30292269  0.66186794  0.56205540    -0.01300
Br1271     Br  0.31995125  0.51303534  0.52294312    -0.01200
Br1272     Br  0.24932701  0.54955768  0.54470090    -0.01200
C1273       C  0.22240449  0.57373075  0.47735897    -0.02300
C1274       C  0.22352314  0.60849133  0.48104472     0.07300
C1275       C  0.19457037  0.62520520  0.46868216    -0.02500
C1276       C  0.16350810  0.60964171  0.46826485    -0.02500
C1277       C  0.16154448  0.57575214  0.47439954     0.07500
C1278       C  0.19144022  0.55749161  0.47705144    -0.02700
Br1279     Br  0.19053485  0.51024199  0.48183900    -0.01200
Br1280     Br  0.25867242  0.54913066  0.45805909    -0.01300
Br1281     Br  0.12397078  0.63468592  0.45642647    -0.01200
Br1282     Br  0.19769507  0.66215788  0.43891280    -0.01200
C1283       C  0.26940652  0.68494243  0.46781558    -0.02300
C1284       C  0.26897900  0.65004343  0.47164962     0.07300
C1285       C  0.28248483  0.63325262  0.44362724    -0.02500
C1286       C  0.27962825  0.64670340  0.41137694    -0.02500
C1287       C  0.27069052  0.67992732  0.40691125     0.07500
C1288       C  0.26827073  0.69958761  0.43559469    -0.02700
Br1289     Br  0.26143564  0.74647222  0.43145638    -0.01200
Br1290     Br  0.28736646  0.71260276  0.50136563    -0.01300
Br1291     Br  0.29158783  0.62002113  0.37371723    -0.01200
Br1292     Br  0.31849734  0.60221712  0.44913739    -0.01200
C1293       C  0.57342680  0.49661315  0.22319678    -0.02300
C1294       C  0.60953129  0.49703580  0.22669471     0.07300
C1295       C  0.62806554  0.48535062  0.19765096    -0.02500
C1296       C  0.61229946  0.47422608  0.16913637    -0.02500
C1297       C  0.57891962  0.48099347  0.16452908     0.07500
C1298       C  0.55908647  0.49064324  0.19158223    -0.02700
Br1299     Br  0.51194304  0.49678766  0.18381471    -0.01200
Br1300     Br  0.54040296  0.50489752  0.25750463    -0.01300
Br1301     Br  0.63702157  0.45345408  0.13320636    -0.01200
Br1302     Br  0.67456103  0.49320144  0.18880561    -0.01200
C1303       C  0.58952463  0.54322878  0.29699554    -0.02300
C1304       C  0.61301590  0.51627489  0.29343034     0.07300
C1305       C  0.62381722  0.50230429  0.32545299    -0.02500
C1306       C  0.61330435  0.51653137  0.35547579    -0.02500
C1307       C  0.58346122  0.53425859  0.35724902     0.07500
C1308       C  0.57172379  0.54834369  0.32733241    -0.02700
Br1309     Br  0.53260196  0.57644268  0.32722562    -0.01200
Br1310     Br  0.58034804  0.57524308  0.26237427    -0.01300
Br1311     Br  0.64412333  0.51840886  0.39257054    -0.01200
Br1312     Br  0.65603469  0.46712130  0.33525493    -0.01200
C1313       C  0.64576919  0.41303685  0.26996961    -0.02300
C1314       C  0.68001711  0.40852768  0.26606053     0.07300
C1315       C  0.70052289  0.43609979  0.26140657    -0.02500
C1316       C  0.68694931  0.46860511  0.26009704    -0.02500
C1317       C  0.65131815  0.47413806  0.26319799     0.07500
C1318       C  0.63168777  0.44476024  0.26939683    -0.02700
Br1319     Br  0.58584653  0.44562133  0.28442466    -0.01200
Br1320     Br  0.61788133  0.37505027  0.27960212    -0.01300
Br1321     Br  0.71988659  0.50254888  0.25280269    -0.01200
Br1322     Br  0.74783587  0.42855057  0.25457059    -0.01200
C1323       C  0.76104956  0.30892565  0.43142908    -0.02300
C1324       C  0.77057104  0.32724342  0.40313027     0.07300
C1325       C  0.77728529  0.36058700  0.40633571    -0.02500
C1326       C  0.77104351  0.37674923  0.43653811    -0.02500
C1327       C  0.76076787  0.35922568  0.46649964     0.07500
C1328       C  0.75710499  0.32398568  0.46296726    -0.02700
Br1329     Br  0.74824946  0.29325707  0.49895350    -0.01200
Br1330     Br  0.75159869  0.26270045  0.42617117    -0.01300
Br1331     Br  0.77195331  0.42399008  0.43224928    -0.01200
Br1332     Br  0.79535062  0.38444331  0.36824666    -0.01200
C1333       C  0.70615158  0.41934552  0.52293912    -0.02300
C1334       C  0.72102058  0.40153980  0.49538489     0.07300
C1335       C  0.70009284  0.40103233  0.46589143    -0.02500
C1336       C  0.67281238  0.42277697  0.46214955    -0.02500
C1337       C  0.65813278  0.43718534  0.48984549     0.07500
C1338       C  0.67451596  0.43510516  0.52028898    -0.02700
Br1339     Br  0.65333846  0.45548053  0.55830279    -0.01200
Br1340     Br  0.72671809  0.42346112  0.56579665    -0.01300
Br1341     Br  0.65191746  0.42910273  0.41932355    -0.01200
Br1342     Br  0.69542018  0.36497241  0.43503634    -0.01200
C1343       C  0.82038101  0.37931548  0.50430133    -0.02300
C1344       C  0.78959468  0.39866482  0.50315876     0.07300
C1345       C  0.79395662  0.43394000  0.50544835    -0.02500
C1346       C  0.82621753  0.44757175  0.50938583    -0.02500
C1347       C  0.85449482  0.42743692  0.51414071     0.07500
C1348       C  0.85114844  0.39341369  0.51241104    -0.02700
Br1349     Br  0.88838326  0.36547955  0.52615580    -0.01200
Br1350     Br  0.82340322  0.33207069  0.49923180    -0.01300
Br1351     Br  0.83260975  0.49465338  0.50594397    -0.01200
Br1352     Br  0.75897747  0.46680743  0.50050843    -0.01200
C1353       C  0.37848617  0.55609508  0.75318907    -0.02300
C1354       C  0.36336119  0.52403946  0.75271943     0.07300
C1355       C  0.32831458  0.52503257  0.74331999    -0.02500
C1356       C  0.31297241  0.55515692  0.73229583    -0.02500
C1357       C  0.33167066  0.58411627  0.72844892     0.07500
C1358       C  0.36557048  0.58245149  0.73487178    -0.02700
Br1359     Br  0.39460935  0.61786382  0.72094234    -0.01200
Br1360     Br  0.40767132  0.57203906  0.78744393    -0.01300
Br1361     Br  0.26568341  0.55720773  0.72309431    -0.01200
Br1362     Br  0.29641821  0.48980729  0.75025916    -0.01200
C1363       C  0.36955703  0.43499789  0.79262130    -0.02300
C1364       C  0.36783369  0.45727343  0.76391963     0.07300
C1365       C  0.35239652  0.44349973  0.73499685    -0.02500
C1366       C  0.33751208  0.41197347  0.73619932    -0.02500
C1367       C  0.33571860  0.39381256  0.76599372     0.07500
C1368       C  0.35076674  0.40594342  0.79423493    -0.02700
Br1369     Br  0.34893990  0.37948938  0.83476663    -0.01200
Br1370     Br  0.40383139  0.43404516  0.82655057    -0.01300
Br1371     Br  0.31843754  0.39339171  0.69694797    -0.01200
Br1372     Br  0.35001828  0.46675109  0.69252193    -0.01200
C1373       C  0.37664566  0.50714128  0.82418041    -0.02300
C1374       C  0.40024762  0.50004360  0.79761833     0.07300
C1375       C  0.43507773  0.50091838  0.80667426    -0.02500
C1376       C  0.44449167  0.50910302  0.83943298    -0.02500
C1377       C  0.42046428  0.51405879  0.86438822     0.07500
C1378       C  0.38694393  0.51457599  0.85646302    -0.02700
Br1379     Br  0.35505775  0.52520599  0.89143033    -0.01200
Br1380     Br  0.32930946  0.50280112  0.82076154    -0.01300
Br1381     Br  0.49089304  0.51224691  0.85140046    -0.01200
Br1382     Br  0.47152994  0.48511559  0.77947929    -0.01200
C1383       C  0.42229031  0.51623594  0.71159863    -0.02300
C1384       C  0.41413803  0.48885920  0.73248488     0.07300
C1385       C  0.42426647  0.45780743  0.71861510    -0.02500
C1386       C  0.43052440  0.45468370  0.68397622    -0.02500
C1387       C  0.42876669  0.48240725  0.66247897     0.07500
C1388       C  0.42361021  0.51337195  0.67689200    -0.02700
Br1389     Br  0.42416328  0.55335672  0.65055324    -0.01200
Br1390     Br  0.45465519  0.54710261  0.72655649    -0.01300
Br1391     Br  0.43681852  0.41137167  0.66554700    -0.01200
Br1392     Br  0.43292068  0.41925242  0.74581393    -0.01200
C1393       C  0.71555271  0.18950042  0.06900114    -0.02300
C1394       C  0.73779402  0.18343054  0.09551245     0.07300
C1395       C  0.76787991  0.16643007  0.08836923    -0.02500
C1396       C  0.77412998  0.15364208  0.05649295    -0.02500
C1397       C  0.74775289  0.15127178  0.03266352     0.07500
C1398       C  0.72076232  0.17428789  0.03775873    -0.02700
Br1399     Br  0.68916651  0.18566177  0.00370651    -0.01200
Br1400     Br  0.67453016  0.21413025  0.07630407    -0.01300
Br1401     Br  0.82131251  0.15133701  0.04467876    -0.01200
Br1402     Br  0.80280106  0.16206482  0.12124574    -0.01200
C1403       C  0.65774182  0.09287496  0.02062212    -0.02300
C1404       C  0.65433302  0.06749482  0.99701882     0.07300
C1405       C  0.68416980  0.05443204  0.98333849    -0.02500
C1406       C  0.71448616  0.07204016  0.98532051    -0.02500
C1407       C  0.71744398  0.10031911  0.00635067     0.07500
C1408       C  0.68946139  0.10491537  0.02860621    -0.02700
Br1409     Br  0.69263734  0.11594390  0.07526323    -0.01200
Br1410     Br  0.62010038  0.11272001  0.04383811    -0.01300
Br1411     Br  0.74945961  0.05668089  0.95609576    -0.01200
Br1412     Br  0.68455445  0.01178577  0.96252316    -0.01200
C1413       C  0.80797750  0.10222320  0.97882211    -0.02300
C1414       C  0.78197813  0.10362924  0.00429147     0.07300
C1415       C  0.78896125  0.08348395  0.03321163    -0.02500
C1416       C  0.82158203  0.07234953  0.04042952    -0.02500
C1417       C  0.84678395  0.07326451  0.01623623     0.07500
C1418       C  0.83864866  0.08538734  0.98454713    -0.02700
Br1419     Br  0.86917655  0.07598775  0.94785816    -0.01200
Br1420     Br  0.80445179  0.11738761  0.93348637    -0.01300
Br1421     Br  0.83264823  0.06115181  0.08560224    -0.01200
Br1422     Br  0.75604313  0.06885768  0.06466695    -0.01200
C1423       C  0.18840550  0.94704504  0.75734104    -0.02300
C1424       C  0.15308541  0.95457191  0.76070579     0.07300
C1425       C  0.13232757  0.92688090  0.77010242    -0.02500
C1426       C  0.14584819  0.89540012  0.77722701    -0.02500
C1427       C  0.17965481  0.88874401  0.77215182     0.07500
C1428       C  0.20070166  0.91435404  0.76187443    -0.02700
Br1429     Br  0.24667589  0.90328897  0.75102330    -0.01200
Br1430     Br  0.22245749  0.97778805  0.74399421    -0.01300
Br1431     Br  0.11801648  0.86071922  0.79538521    -0.01200
Br1432     Br  0.08449038  0.92871148  0.77215920    -0.01200
C1433       C  0.17028008  0.04045925  0.77739375    -0.02300
C1434       C  0.16178973  0.01998185  0.75019769     0.07300
C1435       C  0.17136592  0.03352162  0.71819108    -0.02500
C1436       C  0.17987039  0.06726107  0.71431911    -0.02500
C1437       C  0.17998478  0.08849788  0.74180445     0.07500
C1438       C  0.17382719  0.07469790  0.77338154    -0.02700
Br1439     Br  0.17597846  0.10130013  0.81265450    -0.01200
Br1440     Br  0.20043737  0.02389992  0.81052951    -0.01300
Br1441     Br  0.18783414  0.08533547  0.67037638    -0.01200
Br1442     Br  0.17668718  0.00664519  0.67912865    -0.01200
C1443       C  0.09168377  0.95989516  0.67192631    -0.02300
C1444       C  0.07971691  0.98932059  0.65784607     0.07300
C1445       C  0.08302375  0.01841680  0.67626153    -0.02500
C1446       C  0.09881683  0.01815395  0.70775198    -0.02500
C1447       C  0.11488181  0.98881323  0.72087147     0.07500
C1448       C  0.11338920  0.96049232  0.69921368    -0.02700
Br1449     Br  0.14732582  0.92631646  0.69442288    -0.01200
Br1450     Br  0.08153952  0.91797722  0.65204038    -0.01300
Br1451     Br  0.09709180  0.05933943  0.73186428    -0.01200
Br1452     Br  0.06333583  0.05885706  0.65943492    -0.01200
C1453       C  0.12867303  0.99390663  0.82033600    -0.02300
C1454       C  0.11370667  0.99697881  0.78796554     0.07300
C1455       C  0.07888027  0.00735789  0.78930329    -0.02500
C1456       C  0.06430955  0.02035962  0.81902024    -0.02500
C1457       C  0.08242617  0.02155675  0.84881519     0.07500
C1458       C  0.11560850  0.01041099  0.84805282    -0.02700
Br1459     Br  0.14471739  0.01797207  0.88535624    -0.01200
Br1460     Br  0.16025843  0.95962670  0.83352594    -0.01300
Br1461     Br  0.01859930  0.03614084  0.81891250    -0.01200
Br1462     Br  0.04592757  0.99750660  0.75579210    -0.01200
C1463       C  0.42644179  0.74627736  0.37148740    -0.02300
C1464       C  0.45841964  0.76155701  0.36270300     0.07300
C1465       C  0.45428168  0.79025170  0.34134463    -0.02500
C1466       C  0.42434106  0.79583951  0.32285063    -0.02500
C1467       C  0.39472570  0.77927254  0.33168733     0.07500
C1468       C  0.39607125  0.76004146  0.36052903    -0.02700
Br1469     Br  0.35734738  0.75979210  0.39028630    -0.01200
Br1470     Br  0.41600551  0.70929705  0.40091693    -0.01300
Br1471     Br  0.42373166  0.82864412  0.28780519    -0.01200
Br1472     Br  0.48776781  0.82396533  0.33664863    -0.01200
C1473       C  0.48426332  0.68602973  0.45249089    -0.02300
C1474       C  0.47871861  0.65798237  0.43356926     0.07300
C1475       C  0.47852941  0.66016894  0.39890372    -0.02500
C1476       C  0.48430930  0.69029745  0.38263397    -0.02500
C1477       C  0.48925208  0.72006538  0.40107361     0.07500
C1478       C  0.49122485  0.71653667  0.43684737    -0.02700
Br1479     Br  0.51134894  0.74794899  0.46619728    -0.01200
Br1480     Br  0.48480963  0.68174499  0.50048161    -0.01300
Br1481     Br  0.48154672  0.68911937  0.33483043    -0.01200
Br1482     Br  0.46520233  0.62221241  0.37366624    -0.01200
C1483       C  0.53218955  0.80150998  0.40156701    -0.02300
C1484       C  0.50107161  0.78432761  0.40277484     0.07300
C1485       C  0.47480407  0.80109041  0.42055085    -0.02500
C1486       C  0.47756423  0.83457190  0.42875230    -0.02500
C1487       C  0.50590015  0.85247757  0.41923110     0.07500
C1488       C  0.53324438  0.83571175  0.40566728    -0.02700
Br1489     Br  0.57282169  0.85927558  0.39261458    -0.01200
Br1490     Br  0.57358832  0.78115920  0.41445230    -0.01300
Br1491     Br  0.44277010  0.85595964  0.45456644    -0.01200
Br1492     Br  0.43660561  0.77895263  0.43909388    -0.01200
C1493       C  0.79771778  0.60679746  0.95948790    -0.02300
C1494       C  0.77703147  0.60664315  0.98942397     0.07300
C1495       C  0.79139028  0.58857063  0.01704710    -0.02500
C1496       C  0.82262263  0.57211659  0.01378605    -0.02500
C1497       C  0.83839143  0.56947294  0.98266525     0.07500
C1498       C  0.82329354  0.58358910  0.95502708    -0.02700
Br1499     Br  0.84174200  0.57582740  0.91112898    -0.01200
Br1500     Br  0.80609177  0.64431972  0.93027057    -0.01300
Br1501     Br  0.84360810  0.55141752  0.05171674    -0.01200
Br1502     Br  0.77025305  0.58497695  0.06029211    -0.01200
C1503       C  0.70558975  0.57400298  0.00499791    -0.02300
C1504       C  0.70916502  0.60899385  0.99816584     0.07300
C1505       C  0.67813314  0.62785879  0.99728302    -0.02500
C1506       C  0.64757520  0.61395591  0.00693893    -0.02500
C1507       C  0.64561605  0.58084543  0.01614977     0.07500
C1508       C  0.67420438  0.56087048  0.01466424    -0.02700
Br1509     Br  0.66917177  0.51443662  0.02445890    -0.01200
Br1510     Br  0.73950253  0.54035511  0.99772229    -0.01300
Br1511     Br  0.60754787  0.64137177  0.01095201    -0.01200
Br1512     Br  0.67434147  0.67450345  0.98723636    -0.01200
C1513       C  0.78305618  0.67158286  0.07164150    -0.02300
C1514       C  0.75476955  0.68171440  0.09006071     0.07300
C1515       C  0.72417588  0.67995368  0.07395751    -0.02500
C1516       C  0.72099864  0.65612325  0.04976881    -0.02500
C1517       C  0.74776584  0.65047586  0.02608990     0.07500
C1518       C  0.77965915  0.66165891  0.03800773    -0.02700
Br1519     Br  0.81960695  0.66484150  0.01124786    -0.01200
Br1520     Br  0.82521055  0.66563516  0.09319697    -0.01300
Br1521     Br  0.69509053  0.62170635  0.07101581    -0.01200
Br1522     Br  0.68449197  0.70175492  0.09027487    -0.01200
C1523       C  0.82405658  0.92593446  0.22556271    -0.02300
C1524       C  0.82975664  0.90470632  0.25248363     0.07300
C1525       C  0.84157722  0.91750985  0.28220096    -0.02500
C1526       C  0.84887086  0.95129331  0.28479691    -0.02500
C1527       C  0.84849504  0.97267811  0.25597027     0.07500
C1528       C  0.83109022  0.95962374  0.22786500    -0.02700
Br1529     Br  0.80999587  0.98650610  0.19417856    -0.01200
Br1530     Br  0.80512231  0.90879370  0.18524685    -0.01300
Br1531     Br  0.85011374  0.96596963  0.32988243    -0.01200
Br1532     Br  0.85035666  0.88772416  0.31907625    -0.01200
C1533       C  0.56233681  0.76517991  0.31033077    -0.02300
C1534       C  0.59073949  0.75120196  0.32479213     0.07300
C1535       C  0.58716746  0.73103186  0.35268040    -0.02500
C1536       C  0.55574132  0.72740155  0.36853125    -0.02500
C1537       C  0.52629604  0.74571714  0.35698573     0.07500
C1538       C  0.53026451  0.75906632  0.32390266    -0.02700
Br1539     Br  0.49653149  0.75596095  0.29014032    -0.01200
Br1540     Br  0.56745365  0.79127790  0.27034102    -0.01300
Br1541     Br  0.55872638  0.69728544  0.40633550    -0.01200
Br1542     Br  0.62758118  0.71149210  0.37129241    -0.01200
C1543       C  0.65728866  0.59319150  0.21261551    -0.02300
C1544       C  0.67177550  0.60959023  0.23868570     0.07300
C1545       C  0.67933324  0.59229486  0.26784601    -0.02500
C1546       C  0.67006733  0.55903031  0.27234456    -0.02500
C1547       C  0.65000270  0.54201538  0.24822466     0.07500
C1548       C  0.64327734  0.56174735  0.21790543    -0.02700
Br1549     Br  0.60865223  0.55603019  0.18489487    -0.01200
Br1550     Br  0.65326692  0.61659012  0.17017198    -0.01300
Br1551     Br  0.68603072  0.54046205  0.31364123    -0.01200
Br1552     Br  0.70454843  0.61494083  0.30143462    -0.01200
C1553       C  0.90454721  0.74128212  0.13341523    -0.02300
C1554       C  0.89842740  0.75866680  0.16257388     0.07300
C1555       C  0.92601755  0.76890082  0.18105029    -0.02500
C1556       C  0.95903988  0.76464429  0.16812762    -0.02500
C1557       C  0.96489912  0.74733019  0.13734948     0.07500
C1558       C  0.93641849  0.73009713  0.12593562    -0.02700
Br1559     Br  0.93472488  0.68293605  0.12384126    -0.01200
Br1560     Br  0.87089815  0.73580271  0.10032140    -0.01300
Br1561     Br  0.99369489  0.77941609  0.19683662    -0.01200
Br1562     Br  0.91848733  0.78951402  0.22353050    -0.01200
C1563       C  0.79324190  0.93250357  0.47438586    -0.02300
C1564       C  0.78328855  0.90335743  0.49267853     0.07300
C1565       C  0.80843283  0.89023520  0.51396855    -0.02500
C1566       C  0.84177005  0.89408815  0.50604261    -0.02500
C1567       C  0.85206643  0.92182651  0.48811914     0.07500
C1568       C  0.82727691  0.94238952  0.47385138    -0.02700
Br1569     Br  0.83986867  0.98361234  0.45305229    -0.01200
Br1570     Br  0.76277687  0.96188921  0.45207016    -0.01300
Br1571     Br  0.87190682  0.85959847  0.51946763    -0.01200
Br1572     Br  0.80411110  0.89194815  0.56138454    -0.01200
C1573       C  0.71071551  0.93255979  0.51216282    -0.02300
C1574       C  0.71887269  0.90993149  0.48622655     0.07300
C1575       C  0.69698944  0.91247839  0.45839862    -0.02500
C1576       C  0.66352926  0.92252570  0.46290350    -0.02500
C1577       C  0.65239767  0.93518844  0.49379063     0.07500
C1578       C  0.67750027  0.94473715  0.51613871    -0.02700
Br1579     Br  0.66703968  0.97264183  0.55337160    -0.01200
Br1580     Br  0.74362498  0.94793754  0.54257538    -0.01300
Br1581     Br  0.63465629  0.92208540  0.42454064    -0.01200
Br1582     Br  0.71323868  0.91271234  0.41268146    -0.01200
C1583       C  0.71951032  0.84294900  0.44783808    -0.02300
C1584       C  0.74882314  0.86151993  0.45565814     0.07300
C1585       C  0.77551190  0.85822945  0.43136027    -0.02500
C1586       C  0.77060286  0.84108688  0.40161057    -0.02500
C1587       C  0.73836005  0.83423699  0.39083574     0.07500
C1588       C  0.71279599  0.83360165  0.41482564    -0.02700
Br1589     Br  0.66771753  0.82306747  0.40266794    -0.01200
Br1590     Br  0.68763374  0.82828868  0.48031354    -0.01300
Br1591     Br  0.80854774  0.82302891  0.37701992    -0.01200
Br1592     Br  0.82064701  0.87266494  0.43490169    -0.01200
C1593       C  0.93222288  0.50032502  0.71034134    -0.02300
C1594       C  0.89626747  0.50422023  0.71349887     0.07300
C1595       C  0.87955424  0.51529339  0.68348556    -0.02500
C1596       C  0.89714448  0.52427139  0.65452131    -0.02500
C1597       C  0.93110963  0.51761938  0.65150817     0.07500
C1598       C  0.94854017  0.50535089  0.67913261    -0.02700
Br1599     Br  0.99522515  0.49414849  0.67318696    -0.01200
Br1600     Br  0.96257591  0.49055460  0.74624307    -0.01300
Br1601     Br  0.87434538  0.54580854  0.61779123    -0.01200
Br1602     Br  0.83202588  0.51305506  0.67704856    -0.01200
C1603       C  0.92145864  0.45676303  0.82280380    -0.02300
C1604       C  0.92417794  0.48255382  0.84537683     0.07300
C1605       C  0.91370262  0.51385109  0.83545367    -0.02500
C1606       C  0.89317505  0.51795325  0.80781372    -0.02500
C1607       C  0.89331516  0.49396921  0.78116565     0.07500
C1608       C  0.90835768  0.46253907  0.79050757    -0.02700
Br1609     Br  0.91300631  0.42558618  0.76100171    -0.01200
Br1610     Br  0.93564327  0.41307213  0.83648470    -0.01300
Br1611     Br  0.85902143  0.55069854  0.81857162    -0.01200
Br1612     Br  0.92685212  0.55199802  0.86035212    -0.01200
C1613       C  0.83187347  0.45368331  0.76990879    -0.02300
C1614       C  0.85145490  0.46657873  0.74227742     0.07300
C1615       C  0.85350534  0.44435110  0.71382970    -0.02500
C1616       C  0.83378629  0.41579524  0.71213406    -0.02500
C1617       C  0.81906463  0.40254917  0.74078450     0.07500
C1618       C  0.81702127  0.42213504  0.76913878    -0.02700
Br1619     Br  0.79113928  0.40594438  0.80666998    -0.01200
Br1620     Br  0.82499010  0.47665257  0.81117272    -0.01300
Br1621     Br  0.82990815  0.39246094  0.67049802    -0.01200
Br1622     Br  0.88905879  0.44138182  0.68051264    -0.01200
C1623       C  0.60265109  0.24544618  0.62229503    -0.02300
C1624       C  0.60501593  0.22634815  0.65095444     0.07300
C1625       C  0.57721373  0.20734008  0.65976632    -0.02500
C1626       C  0.54658984  0.21184966  0.64247037    -0.02500
C1627       C  0.54050481  0.24111618  0.62266426     0.07500
C1628       C  0.57150048  0.25672997  0.61095411    -0.02700
Br1629     Br  0.57854065  0.29233319  0.57852305    -0.01200
Br1630     Br  0.64317576  0.25120570  0.59597870    -0.01300
Br1631     Br  0.51541605  0.17600470  0.64609132    -0.01200
Br1632     Br  0.58106023  0.17444263  0.69440716    -0.01200
C1633       C  0.71314046  0.33399655  0.57758512    -0.02300
C1634       C  0.74111306  0.32538726  0.59676598     0.07300
C1635       C  0.77247194  0.33049757  0.58254382    -0.02500
C1636       C  0.77526474  0.35470411  0.55816975    -0.02500
C1637       C  0.74951145  0.35865767  0.53356032     0.07500
C1638       C  0.71755789  0.34577153  0.54444899    -0.02700
Br1639     Br  0.67890455  0.34219010  0.51662790    -0.01200
Br1640     Br  0.66925788  0.33382194  0.59740892    -0.01300
Br1641     Br  0.80121127  0.38990814  0.57678686    -0.01200
Br1642     Br  0.81260983  0.31108241  0.60055830    -0.01200
C1643       C  0.91417558  0.28859993  0.83917141    -0.02300
C1644       C  0.89944318  0.25998441  0.82778408     0.07300
C1645       C  0.91874667  0.23104578  0.82706336    -0.02500
C1646       C  0.95136624  0.22984641  0.84031225    -0.02500
C1647       C  0.96582873  0.25770709  0.85681492     0.07500
C1648       C  0.94397373  0.28681797  0.85760626    -0.02700
Br1649     Br  0.94310509  0.32151912  0.89056290    -0.01200
Br1650     Br  0.89189598  0.33070052  0.83199763    -0.01300
Br1651     Br  0.97378800  0.18795659  0.83506543    -0.01200
Br1652     Br  0.90101333  0.19318683  0.80462936    -0.01200
C1653       C  0.73156838  0.14195241  0.90926518    -0.02300
C1654       C  0.75123810  0.16925778  0.90094203     0.07300
C1655       C  0.76462520  0.18756005  0.92703529    -0.02500
C1656       C  0.76310787  0.17535302  0.96032648    -0.02500
C1657       C  0.74459046  0.14594296  0.96865063     0.07500
C1658       C  0.72361863  0.13504937  0.94241810    -0.02700
Br1659     Br  0.67630184  0.12827906  0.94733877    -0.01200
Br1660     Br  0.71514032  0.11222010  0.87623952    -0.01300
Br1661     Br  0.78594419  0.20184051  0.99187345    -0.01200
Br1662     Br  0.78508709  0.22955927  0.91719848    -0.01200
C1663       C  0.56727414  0.99636973  0.78767648    -0.02300
C1664       C  0.60290825  0.99877215  0.78208935     0.07300
C1665       C  0.62320493  0.99800860  0.81200532    -0.02500
C1666       C  0.60950700  0.99091096  0.84352588    -0.02500
C1667       C  0.57523753  0.98749628  0.84778159     0.07500
C1668       C  0.55417418  0.99086088  0.82017560    -0.02700
Br1669     Br  0.50634607  0.98931542  0.82754657    -0.01200
Br1670     Br  0.53327882  0.00366717  0.75424506    -0.01300
Br1671     Br  0.63861262  0.98052161  0.88082967    -0.01200
Br1672     Br  0.67137099  0.00178350  0.81293992    -0.01200
C1673       C  0.59993286  0.03653691  0.69183792    -0.02300
C1674       C  0.59899062  0.00751096  0.71379528     0.07300
C1675       C  0.58086350  0.98013086  0.70042369    -0.02500
C1676       C  0.56770439  0.98116108  0.66785974    -0.02500
C1677       C  0.56879774  0.00997249  0.64844887     0.07500
C1678       C  0.58074591  0.03854937  0.66269072    -0.02700
Br1679     Br  0.57440714  0.08059729  0.63981190    -0.01200
Br1680     Br  0.63371458  0.07052486  0.68946335    -0.01300
Br1681     Br  0.54599864  0.94316408  0.64986158    -0.01200
Br1682     Br  0.57449107  0.93897724  0.72417532    -0.01200
C1683       C  0.62488157  0.06365704  0.76433257    -0.02300
C1684       C  0.64231862  0.03477994  0.75200655     0.07300
C1685       C  0.67795715  0.03824695  0.74669221    -0.02500
C1686       C  0.69300761  0.06933603  0.75016120    -0.02500
C1687       C  0.67452953  0.09619199  0.76173716     0.07500
C1688       C  0.64169767  0.09248523  0.77174342    -0.02700
Br1689     Br  0.61898101  0.12925993  0.79275735    -0.01200
Br1690     Br  0.57717777  0.06953650  0.76459563    -0.01300
Br1691     Br  0.73946891  0.07619655  0.73930179    -0.01200
Br1692     Br  0.70914662  0.00309183  0.73660027    -0.01200
C1693       C  0.86203674  0.59625320  0.74649424    -0.02300
C1694       C  0.82779435  0.60132130  0.75028055     0.07300
C1695       C  0.80682246  0.57391078  0.75195076    -0.02500
C1696       C  0.81970771  0.54117433  0.74907772    -0.02500
C1697       C  0.85537763  0.53482118  0.74757425     0.07500
C1698       C  0.87588322  0.56422309  0.74641657    -0.02700
Br1699     Br  0.92395266  0.56390548  0.75015302    -0.01200
Br1700     Br  0.89068045  0.63451125  0.74434364    -0.01300
Br1701     Br  0.78562205  0.50821911  0.74497944    -0.01200
Br1702     Br  0.75949726  0.58210665  0.75709476    -0.01200
C1703       C  0.76851346  0.81723731  0.55845731    -0.02300
C1704       C  0.75377390  0.83324170  0.58586072     0.07300
C1705       C  0.73357646  0.86081161  0.57944359    -0.02500
C1706       C  0.72401836  0.86874534  0.54730562    -0.02500
C1707       C  0.74473412  0.85983365  0.51981723     0.07500
C1708       C  0.76599746  0.83147882  0.52599071    -0.02700
Br1709     Br  0.79336886  0.81126874  0.49223942    -0.01200
Br1710     Br  0.79338960  0.77687912  0.56543808    -0.01300
Br1711     Br  0.67621191  0.87309904  0.54542192    -0.01200
Br1712     Br  0.72229525  0.89182307  0.61337951    -0.01200
C1713       C  0.59662513  0.74853101  0.86083083    -0.02300
C1714       C  0.59820987  0.76804660  0.83226155     0.07300
C1715       C  0.56966712  0.78614365  0.82339697    -0.02500
C1716       C  0.53935811  0.78201255  0.84160282    -0.02500
C1717       C  0.53452685  0.75418118  0.86392783     0.07500
C1718       C  0.56583815  0.73762340  0.87353521    -0.02700
Br1719     Br  0.57390390  0.70283021  0.90674593    -0.01200
Br1720     Br  0.63784261  0.74131020  0.88553820    -0.01300
Br1721     Br  0.50564429  0.81522215  0.83288133    -0.01200
Br1722     Br  0.57190279  0.81690517  0.78649788    -0.01200
C1723       C  0.67072474  0.91947127  0.76098426    -0.02300
C1724       C  0.67159702  0.90549717  0.72952556     0.07300
C1725       C  0.66203168  0.92568725  0.70262795    -0.02500
C1726       C  0.65367982  0.95911467  0.70816806    -0.02500
C1727       C  0.64251933  0.96934162  0.74084201     0.07500
C1728       C  0.64755362  0.94440519  0.76628993    -0.02700
Br1729     Br  0.61371737  0.92643529  0.79601666    -0.01200
Br1730     Br  0.69292413  0.89966223  0.79871046    -0.01300
Br1731     Br  0.65919783  0.98803142  0.67010752    -0.01200
Br1732     Br  0.65366598  0.90719481  0.66001866    -0.01200
C1733       C  0.72634417  0.64230814  0.89762332    -0.02300
C1734       C  0.73215334  0.67553669  0.89243001     0.07300
C1735       C  0.73816922  0.69569152  0.91967935    -0.02500
C1736       C  0.74148763  0.68213607  0.95232079    -0.02500
C1737       C  0.73807469  0.64711188  0.95835633     0.07500
C1738       C  0.72955337  0.62800141  0.92944652    -0.02700
Br1739     Br  0.72623421  0.58087469  0.92907501    -0.01200
Br1740     Br  0.71480151  0.61614584  0.85937740    -0.01300
Br1741     Br  0.75056896  0.71377221  0.98630753    -0.01200
Br1742     Br  0.74254780  0.74230195  0.91130016    -0.01200
C1743       C  0.92141920  0.76806571  0.67194859    -0.02300
C1744       C  0.90095040  0.74087691  0.66721832     0.07300
C1745       C  0.91508382  0.71220315  0.65431385    -0.02500
C1746       C  0.94690978  0.71280743  0.63889902    -0.02500
C1747       C  0.96939116  0.74071756  0.64266704     0.07500
C1748       C  0.95495943  0.76814532  0.66057452    -0.02700
Br1749     Br  0.97913014  0.80798258  0.66969819    -0.01200
Br1750     Br  0.90361633  0.80465831  0.69699935    -0.01300
Br1751     Br  0.94945117  0.67796261  0.60623136    -0.01200
Br1752     Br  0.88892174  0.67205654  0.65495413    -0.01200
loop_ 
_geom_bond_atom_site_label_1 
_geom_bond_atom_site_label_2 
_geom_bond_distance 
_geom_bond_site_symmetry_2 
_ccdc_geom_bond_type 
O1           Mg3   2.148       .  S
O1           Mg9   2.143       .  S
O1           C36   1.239       .  S
C2           O15   1.240       .  S
C2           O39   1.274       .  A
C2           H41   1.081       .  S
Mg3          O32   2.132       .  S
Mg3          O47   2.346       .  S
Mg3          O43   2.245       .  S
Mg3          O14   2.301       .  S
O4          Mg46   2.127       .  S
O4          Mg29   2.128       .  S
O4           C25   1.239       .  S
O5           C36   1.274       .  A
O5          Mg29   2.312       .  S
C6            O8   1.270       .  A
C6           O20   1.281       .  A
C6         C1704   1.494       .  S
O7           C35   1.270       .  A
O7           Mg9   2.292       .  S
O8          Mg40   2.220       .  S
Mg9          O15   2.136       .  S
Mg9          O23   2.220       .  S
Mg9          O11   2.337       .  S
C10          O48   1.277       .  A
C10          O16   1.276       .  A
C10        C1744   1.497       .  S
O11          C18   1.276       .  A
H12          C25   1.082       .  S
C13          O27   1.241       .  S
C13          O28   1.274       .  A
C13          H38   1.080       .  S
O14          C37   1.270       .  A
O15         Mg29   2.135       .  S
O16         Mg46   2.318       .  S
C17          O30   1.273       .  A
C17          O22   1.283       .  A
C17        C1694   1.499       .  S
C18          O45   1.275       .  A
C18        C1734   1.485       .  S
Mg19         O26   2.134       .  S
Mg19         O27   2.144       .  S
Mg19         O20   2.362       .  S
Mg19         O21   2.306       .  S
Mg19         O48   2.288       .  S
O21          C25   1.273       .  A
O22         Mg29   2.379       .  S
O23          C42   1.270       .  A
O24          C44   1.278       .  A
O24         Mg40   2.350       .  S
O26         Mg40   2.129       .  S
O26          C37   1.236       .  S
O27         Mg46   2.136       .  S
O28         Mg40   2.297       .  S
Mg29         O45   2.269       .  S
O30         Mg46   2.260       .  S
H31          C36   1.080       .  S
O32         Mg40   2.135       .  S
O32          C35   1.238       .  S
H33          C35   1.082       .  S
H34          C37   1.081       .  S
O39         Mg46   2.303       .  S
C42          O47   1.276       .  A
C42        C1714   1.497       .  S
O43          C44   1.273       .  A
C44        C1724   1.487       .  S
C49        C1664   1.608   1_545  S
C49        C1674   1.620       .  S
C49        C1684   1.587       .  S
C49        C1727   1.606   1_545  S
O50         Mg52   2.134       .  S
O50         Mg58   2.142       .  S
O50          C85   1.237       .  S
C51          O64   1.236       .  S
C51          O88   1.268       .  A
C51          H90   1.082       .  S
Mg52         O81   2.141       .  S
Mg52         O96   2.338       .  S
Mg52         O92   2.276       .  S
Mg52         O63   2.310       .  S
O53         Mg95   2.141       .  S
O53         Mg78   2.130       .  S
O53          C74   1.239       .  S
O54          C85   1.271       .  A
O54         Mg78   2.296       .  S
C55          O57   1.274       .  A
C55          O69   1.279       .  A
C55        C1617   1.504       .  S
O56          C84   1.272       .  A
O56         Mg58   2.290       .  S
O57         Mg89   2.281       .  S
Mg58         O64   2.119       .  S
Mg58         O72   2.219       .  S
Mg58         O60   2.298       .  S
C59          O97   1.273       .  A
C59          O65   1.275       .  A
C59        C1634   1.489       .  S
O60          C67   1.273       .  A
H61          C74   1.080       .  S
C62          O76   1.241       .  S
C62          O77   1.277       .  A
C62          H87   1.082       .  S
O63          C86   1.273       .  A
O64         Mg78   2.142       .  S
O65         Mg95   2.327       .  S
C66          O79   1.276       .  A
C66          O71   1.279       .  A
C66        C1624   1.503       .  S
C67          O94   1.272       .  A
C67        C1687   1.463       .  S
Mg68         O75   2.134       .  S
Mg68         O76   2.126       .  S
Mg68         O69   2.349       .  S
Mg68         O70   2.308       .  S
Mg68         O97   2.257       .  S
O70          C74   1.273       .  A
O71         Mg78   2.363       .  S
O72          C91   1.267       .  A
O73          C93   1.280       .  A
O73         Mg89   2.347       .  S
O75         Mg89   2.120       .  S
O75          C86   1.238       .  S
O76         Mg95   2.162       .  S
O77         Mg89   2.323       .  S
Mg78         O94   2.240       .  S
O79         Mg95   2.251       .  S
H80          C85   1.082       .  S
O81         Mg89   2.131       .  S
O81          C84   1.240       .  S
H82          C84   1.080       .  S
H83          C86   1.082       .  S
O88         Mg95   2.281       .  S
C91          O96   1.279       .  A
C91        C1654   1.492       .  S
O92          C93   1.276       .  A
C93        C1644   1.502       .  S
C98        C1594   1.606       .  S
C98        C1607   1.622       .  S
C98        C1614   1.631       .  S
C98        C1697   1.619       .  S
C99        C1564   1.602       .  S
C99        C1574   1.607       .  S
C99        C1584   1.611       .  S
C99        C1707   1.607       .  S
O100       Mg102   2.146       .  S
O100       Mg108   2.139       .  S
O100        C135   1.241       .  S
C101        O114   1.238       .  S
C101        O138   1.272       .  A
C101        H140   1.082       .  S
Mg102       O131   2.147       .  S
Mg102       O146   2.339       .  S
Mg102       O142   2.272       .  S
Mg102       O113   2.317       .  S
O103       Mg145   2.138       .  S
O103       Mg128   2.147       .  S
O103        C124   1.240       .  S
O104        C135   1.276       .  A
O104       Mg128   2.312       .  S
C105        O107   1.268       .  A
C105        O119   1.275       .  A
C105       C1587   1.497       .  S
O106        C134   1.273       .  A
O106       Mg108   2.310       .  S
O107       Mg139   2.249       .  S
Mg108       O114   2.110       .  S
Mg108       O122   2.205       .  S
Mg108       O110   2.354       .  S
C109        O147   1.274       .  A
C109        O115   1.279       .  A
C109       C1534   1.484       .  S
O110        C117   1.277       .  A
H111        C124   1.082       .  S
C112        O126   1.238       .  S
C112        O127   1.272       .  A
C112        H137   1.081       .  S
O113        C136   1.273       .  A
O114       Mg128   2.108       .  S
O115       Mg145   2.333       .  S
C116        O129   1.273       .  A
C116        O121   1.277       .  A
C116       C1544   1.486       .  S
C117        O144   1.275       .  A
C117       C1514   1.504       .  S
Mg118       O125   2.160       .  S
Mg118       O126   2.124       .  S
Mg118       O119   2.347       .  S
Mg118       O120   2.304       .  S
Mg118       O147   2.278       .  S
O120        C124   1.274       .  A
O121       Mg128   2.320       .  S
O122        C141   1.268       .  A
O123        C143   1.273       .  A
O123       Mg139   2.297       .  S
O125       Mg139   2.118       .  S
O125        C136   1.237       .  S
O126       Mg145   2.111       .  S
O127       Mg139   2.304       .  S
Mg128       O144   2.282       .  S
O129       Mg145   2.257       .  S
H130        C135   1.080       .  S
O131       Mg139   2.149       .  S
O131        C134   1.237       .  S
H132        C134   1.082       .  S
H133        C136   1.082       .  S
O138       Mg145   2.301       .  S
C141        O146   1.277       .  A
C141       C1554   1.485       .  S
O142        C143   1.272       .  A
C143       C1524   1.482       .  S
C148       C1494   1.611       .  S
C148       C1504   1.607       .  S
C148       C1517   1.623   1_556  S
C148       C1737   1.607       .  S
C149       C1464   1.639       .  S
C149       C1477   1.570       .  S
C149       C1484   1.600       .  S
C149       C1537   1.635       .  S
C150       C1424   1.601       .  S
C150       C1434   1.622   1_565  S
C150       C1447   1.615       .  S
C150       C1454   1.634       .  S
C151       C1397   1.606       .  S
C151       C1407   1.616       .  S
C151       C1414   1.618       .  S
C151       C1657   1.609   1_554  S
C152       C1354   1.629       .  S
C152       C1364   1.613       .  S
C152       C1374   1.591       .  S
C152       C1384   1.620       .  S
C153       C1327   1.605       .  S
C153       C1334   1.622       .  S
C153       C1344   1.616       .  S
C153       C1637   1.612       .  S
C154       C1294   1.613       .  S
C154       C1304   1.626       .  S
C154       C1317   1.606       .  S
C154       C1547   1.633       .  S
C155       C1254   1.599       .  S
C155       C1264   1.600       .  S
C155       C1274   1.603       .  S
C155       C1284   1.607       .  S
C156       C1224   1.610   1_655  S
C156       C1234   1.612       .  S
C156       C1247   1.616       .  S
C156       C1557   1.613       .  S
O157       Mg159   2.138       .  S
O157       Mg165   2.151       .  S
O157        C192   1.238       .  S
C158        O171   1.240       .  S
C158        O195   1.273       .  A
C158        H197   1.082       .  S
Mg159       O188   2.145       .  S
Mg159       O203   2.323       .  S
Mg159       O199   2.277       .  S
Mg159       O170   2.304       .  S
O160       Mg202   2.151       .  S
O160       Mg185   2.119       .  S
O160        C181   1.239       .  S
O161        C192   1.272       .  A
O161       Mg185   2.303       .  S
C162        O164   1.281       .  A
C162        O176   1.281       .  A
C162       C1217   1.506       .  S
O163        C191   1.276       .  A
O163       Mg165   2.324       .  S
O164       Mg196   2.331       .  S
Mg165       O171   2.147       .  S
Mg165       O179   2.333       .  S
Mg165       O167   2.320       .  S
C166        O204   1.279       .  A
C166        O172   1.276       .  A
C166       C1227   1.511       .  S
O167        C174   1.280       .  A
H168        C181   1.081       .  S
C169        O183   1.237       .  S
C169        O184   1.271       .  A
C169        H194   1.082       .  S
O170        C193   1.272       .  A
O171       Mg185   2.167       .  S
O172       Mg202   2.308       .  S
C173        O186   1.271       .  A
C173        O178   1.277       .  A
C173       C1194   1.487       .  S
C174        O201   1.271       .  A
C174       C1204   1.493       .  S
Mg175       O182   2.154       .  S
Mg175       O183   2.144       .  S
Mg175       O176   2.323       .  S
Mg175       O177   2.287       .  S
Mg175       O204   2.320       .  S
O177        C181   1.271       .  A
O178       Mg185   2.300       .  S
O179        C198   1.275       .  A
O180        C200   1.284       .  A
O180       Mg196   2.362       .  S
O182       Mg196   2.151       .  S
O182        C193   1.238       .  S
O183       Mg202   2.123       .  S
O184       Mg196   2.296       .  S
Mg185       O201   2.273       .  S
O186       Mg202   2.271       .  S
H187        C192   1.082       .  S
O188       Mg196   2.179       .  S
O188        C191   1.240       .  S
H189        C191   1.080       .  S
H190        C193   1.083       .  S
O195       Mg202   2.302       .  S
C198        O203   1.279       .  A
C198       C1467   1.523       .  S
O199        C200   1.274       .  A
C200       C1287   1.498       .  S
C205       C1164   1.611       .  S
C205       C1174   1.603       .  S
C205       C1184   1.613       .  S
C205       C1197   1.611   1_556  S
C206       C1134   1.568       .  S
C206       C1147   1.610       .  S
C206       C1154   1.639       .  S
C206       C1627   1.631       .  S
O207       Mg209   2.144       .  S
O207       Mg215   2.148       .  S
O207        C242   1.241       .  S
C208        O221   1.238       .  S
C208        O245   1.273       .  A
C208        H247   1.080       .  S
Mg209       O238   2.132       .  S
Mg209       O253   2.348       .  S
Mg209       O249   2.282       .  S
Mg209       O220   2.308       .  S
O210       Mg252   2.152       .  S
O210       Mg235   2.143       .  S
O210        C231   1.239       .  S
O211        C242   1.275       .  A
O211       Mg235   2.309       .  S
C212        O214   1.268       .  A
C212        O226   1.273       .  A
C212       C1124   1.473       .  S
O213        C241   1.270       .  A
O213       Mg215   2.293       .  S
O214       Mg246   2.241       .  S
Mg215       O221   2.141       .  S
Mg215       O229   2.282       .  S
Mg215       O217   2.319       .  S
C216        O254   1.274       .  A
C216        O222   1.284       .  A
C216       C1437   1.507       .  S
O217        C224   1.276       .  A
H218        C231   1.082       .  S
C219        O233   1.240       .  S
C219        O234   1.275       .  A
C219        H244   1.083       .  S
O220        C243   1.273       .  A
O221       Mg235   2.135       .  S
O222       Mg252   2.379       .  S
C223        O236   1.277       .  A
C223        O228   1.277       .  A
C223       C1104   1.490       .  S
C224        O251   1.270       .  A
C224       C1114   1.522       .  S
Mg225       O232   2.161       .  S
Mg225       O233   2.132       .  S
Mg225       O226   2.284       .  S
Mg225       O227   2.300       .  S
Mg225       O254   2.285       .  S
O227        C231   1.273       .  A
O228       Mg235   2.304       .  S
O229        C248   1.276       .  A
O230        C250   1.278       .  A
O230       Mg246   2.341       .  S
O232       Mg246   2.140       .  S
O232        C243   1.238       .  S
O233       Mg252   2.130       .  S
O234       Mg246   2.315       .  S
Mg235       O251   2.295       .  S
O236       Mg252   2.290       .  S
H237        C242   1.082       .  S
O238       Mg246   2.115       .  S
O238        C241   1.237       .  S
H239        C241   1.082       .  S
H240        C243   1.080       .  S
O245       Mg252   2.311       .  S
C248        O253   1.280       .  A
C248       C1367   1.490       .  S
O249        C250   1.275       .  A
C250       C1157   1.486       .  S
C255       C1087   1.608       .  S
C255       C1097   1.617   1_455  S
C255       C1107   1.611       .  S
C255       C1647   1.626   1_455  S
O256       Mg258   2.142       .  S
O256       Mg264   2.157       .  S
O256        C291   1.239       .  S
C257        O270   1.240       .  S
C257        O294   1.272       .  A
C257        H296   1.080       .  S
Mg258       O287   2.140       .  S
Mg258       O302   2.273       .  S
Mg258       O298   2.304       .  S
Mg258       O269   2.304       .  S
O259       Mg301   2.135       .  S
O259       Mg284   2.117       .  S
O259        C280   1.238       .  S
O260        C291   1.273       .  A
O260       Mg284   2.302       .  S
C261        O263   1.272       .  A
C261        O275   1.280       .  A
C261       C1324   1.493       .  S
O262        C290   1.272       .  A
O262       Mg264   2.307       .  S
O263       Mg295   2.274       .  S
Mg264       O270   2.117       .  S
Mg264       O278   2.261       .  S
Mg264       O266   2.306       .  S
C265        O303   1.274       .  A
C265        O271   1.281       .  A
C265       C1314   1.488       .  S
O266        C273   1.274       .  A
H267        C280   1.083       .  S
C268        O282   1.237       .  S
C268        O283   1.270       .  A
C268        H293   1.082       .  S
O269        C292   1.273       .  A
O270       Mg284   2.153       .  S
O271       Mg301   2.325       .  S
C272        O285   1.276       .  A
C272        O277   1.279       .  A
C272       C1074   1.505       .  S
C273        O300   1.273       .  A
C273       C1394   1.507       .  S
Mg274       O281   2.135       .  S
Mg274       O282   2.136       .  S
Mg274       O275   2.334       .  S
Mg274       O276   2.298       .  S
Mg274       O303   2.268       .  S
O276        C280   1.272       .  A
O277       Mg284   2.318       .  S
O278        C297   1.271       .  A
O279        C299   1.273       .  A
O279       Mg295   2.286       .  S
O281       Mg295   2.141       .  S
O281        C292   1.239       .  S
O282       Mg301   2.131       .  S
O283       Mg295   2.294       .  S
Mg284       O300   2.278       .  S
O285       Mg301   2.307       .  S
H286        C291   1.082       .  S
O287       Mg295   2.125       .  S
O287        C290   1.237       .  S
H288        C290   1.082       .  S
H289        C292   1.079       .  S
O294       Mg301   2.293       .  S
C297        O302   1.272       .  A
C297       C1054   1.473       .  S
O298        C299   1.271       .  A
C299       C1064   1.511       .  S
C304       C1037   1.623   1_545  S
C304       C1047   1.638       .  S
C304       C1057   1.573       .  S
C304       C1527   1.606   1_545  S
C305       C1004   1.603       .  S
C305       C1017   1.625   1_655  S
C305       C1024   1.613   1_655  S
C305       C1067   1.629       .  S
O306       Mg308   2.133       .  S
O306       Mg314   2.126       .  S
O306        C341   1.240       .  S
C307        O320   1.240       .  S
C307        O344   1.275       .  A
C307        H346   1.082       .  S
Mg308       O337   2.133       .  S
Mg308       O352   2.340       .  S
Mg308       O348   2.258       .  S
Mg308       O319   2.301       .  S
O309       Mg351   2.126       .  S
O309       Mg334   2.135       .  S
O309        C330   1.239       .  S
O310        C341   1.274       .  A
O310       Mg334   2.307       .  S
C311        O313   1.271       .  A
C311        O325   1.273       .  A
C311        C984   1.470       .  S
O312        C340   1.273       .  A
O312       Mg314   2.299       .  S
O313       Mg345   2.242       .  S
Mg314       O320   2.144       .  S
Mg314       O328   2.281       .  S
Mg314       O316   2.353       .  S
C315        O353   1.270       .  A
C315        O321   1.284       .  A
C315        C964   1.497       .  S
O316        C323   1.281       .  A
H317        C330   1.080       .  S
C318        O332   1.240       .  S
C318        O333   1.274       .  A
C318        H343   1.081       .  S
O319        C342   1.272       .  A
O320       Mg334   2.127       .  S
O321       Mg351   2.375       .  S
C322        O335   1.276       .  A
C322        O327   1.276       .  A
C322       C1027   1.482       .  S
C323        O350   1.271       .  A
C323        C954   1.497       .  S
Mg324       O331   2.136       .  S
Mg324       O332   2.127       .  S
Mg324       O325   2.313       .  S
Mg324       O326   2.305       .  S
Mg324       O353   2.248       .  S
O326        C330   1.273       .  A
O327       Mg334   2.337       .  S
O328        C347   1.277       .  A
O329        C349   1.279       .  A
O329       Mg345   2.338       .  S
O331       Mg345   2.130       .  S
O331        C342   1.239       .  S
O332       Mg351   2.130       .  S
O333       Mg345   2.306       .  S
Mg334       O350   2.251       .  S
O335       Mg351   2.268       .  S
H336        C341   1.081       .  S
O337       Mg345   2.120       .  S
O337        C340   1.240       .  S
H338        C340   1.080       .  S
H339        C342   1.082       .  S
O344       Mg351   2.313       .  S
C347        O352   1.277       .  A
C347        C994   1.486       .  S
O348        C349   1.272       .  A
C349        C974   1.482       .  S
C354        C934   1.625       .  S
C354        C944   1.589   1_554  S
C354        C997   1.619       .  S
C354       C1117   1.634   1_554  S
C355        C917   1.611       .  S
C355        C924   1.601   1_545  S
C355        C987   1.598       .  S
C355       C1207   1.616   1_545  S
O356       Mg358   2.115       .  S
O356       Mg364   2.146   1_545  S
O356        C391   1.240       .  S
C357        O370   1.239   1_455  S
C357        O394   1.274       .  A
C357        H396   1.081       .  S
Mg358       O387   2.129   1_655  S
Mg358       O402   2.324       .  S
Mg358       O398   2.249       .  S
Mg358       O369   2.310       .  S
O359       Mg401   2.118   1_655  S
O359       Mg384   2.139       .  S
O359        C380   1.238       .  S
O360        C391   1.272   1_565  A
O360       Mg384   2.294       .  S
C361        O363   1.269       .  A
C361        O375   1.278       .  A
C361        C904   1.480       .  S
O362        C390   1.270   1_565  A
O362       Mg364   2.293   1_455  S
O363       Mg395   2.249       .  S
Mg364       O370   2.141       .  S
Mg364       O378   2.273       .  S
Mg364       O366   2.314       .  S
C365        O403   1.274   1_565  A
C365        O371   1.284       .  A
C365       C1444   1.509       .  S
O366        C373   1.275       .  A
H367        C380   1.083       .  S
C368        O382   1.241       .  S
C368        O383   1.276       .  A
C368        H393   1.081       .  S
O369        C392   1.274   1_655  A
O370       Mg384   2.139       .  S
O371       Mg401   2.375       .  S
C372        O385   1.279   1_655  A
C372        O377   1.277       .  A
C372        C894   1.500       .  S
C373        O400   1.272       .  A
C373       C1567   1.485       .  S
Mg374       O381   2.133       .  S
Mg374       O382   2.133   1_545  S
Mg374       O375   2.332       .  S
Mg374       O376   2.308       .  S
Mg374       O403   2.270       .  S
O376        C380   1.272   1_445  A
O377       Mg384   2.341       .  S
O378        C397   1.273   1_565  A
O379        C399   1.275       .  A
O379       Mg395   2.320       .  S
O381       Mg395   2.131       .  S
O381        C392   1.239       .  S
O382       Mg401   2.145       .  S
O383       Mg395   2.310   1_565  S
Mg384       O400   2.236       .  S
O385       Mg401   2.295       .  S
H386        C391   1.081       .  S
O387       Mg395   2.124       .  S
O387        C390   1.237       .  S
H388        C390   1.082       .  S
H389        C392   1.081       .  S
O394       Mg401   2.309       .  S
C397        O402   1.278       .  A
C397       C1044   1.481       .  S
O398        C399   1.271   1_655  A
C399       C1014   1.487       .  S
O404       Mg406   2.133       .  S
O404       Mg412   2.150       .  S
O404        C439   1.239       .  S
C405        O418   1.238       .  S
C405        O442   1.272       .  A
C405        H444   1.082       .  S
Mg406       O435   2.132   1_545  S
Mg406       O450   2.300       .  S
Mg406       O446   2.282   1_545  S
Mg406       O417   2.300   1_556  S
O407       Mg449   2.146   1_545  S
O407       Mg432   2.137       .  S
O407        C428   1.239       .  S
O408        C439   1.272   1_554  A
O408       Mg432   2.299   1_455  S
C409        O411   1.271       .  A
C409        O423   1.272       .  A
C409       C1244   1.495       .  S
O410        C438   1.272       .  A
O410       Mg412   2.302   1_565  S
O411       Mg443   2.260   1_554  S
Mg412       O418   2.155   1_455  S
Mg412       O426   2.343       .  S
Mg412       O414   2.318   1_455  S
C413        O451   1.273       .  A
C413        O419   1.282       .  A
C413       C1034   1.508       .  S
O414        C421   1.281       .  A
H415        C428   1.080       .  S
C416        O430   1.236       .  S
C416        O431   1.268       .  A
C416        H441   1.082       .  S
O417        C440   1.272   1_545  A
O418       Mg432   2.165   1_556  S
O419       Mg449   2.316       .  S
C420        O433   1.276       .  A
C420        O425   1.276       .  A
C420       C1417   1.500       .  S
C421        O448   1.272       .  A
C421       C1094   1.487       .  S
Mg422       O429   2.141       .  S
Mg422       O430   2.158   1_455  S
Mg422       O423   2.277       .  S
Mg422       O424   2.302   1_565  S
Mg422       O451   2.304   1_455  S
O424        C428   1.272   1_455  A
O425       Mg432   2.305       .  S
O426        C445   1.280       .  A
O427        C447   1.274       .  A
O427       Mg443   2.298       .  S
O429       Mg443   2.173   1_554  S
O429        C440   1.239       .  S
O430       Mg449   2.111       .  S
O431       Mg443   2.281   1_654  S
Mg432       O448   2.271   1_554  S
O433       Mg449   2.297   1_545  S
H434        C439   1.082       .  S
O435       Mg443   2.126       .  S
O435        C438   1.238       .  S
H436        C438   1.080       .  S
H437        C440   1.082       .  S
O442       Mg449   2.302   1_546  S
C445        O450   1.276       .  A
C445       C1457   1.514       .  S
O446        C447   1.273       .  A
C447       C1187   1.480       .  S
O452       Mg454   2.135       .  S
O452       Mg460   2.137       .  S
O452        C487   1.239       .  S
C453        O466   1.238       .  S
C453        O490   1.273   1_565  A
C453        H492   1.080       .  S
Mg454       O483   2.109       .  S
Mg454       O498   2.340       .  S
Mg454       O494   2.257       .  S
Mg454       O465   2.323   1_565  S
O455       Mg497   2.113       .  S
O455       Mg480   2.140       .  S
O455        C476   1.238       .  S
O456        C487   1.273   1_545  A
O456       Mg480   2.302       .  S
C457        O459   1.275   1_545  A
C457        O471   1.275       .  A
C457       C1677   1.496       .  S
O458        C486   1.272       .  A
O458       Mg460   2.307       .  S
O459       Mg491   2.283       .  S
Mg460       O466   2.127       .  S
Mg460       O474   2.245       .  S
Mg460       O462   2.312       .  S
C461        O499   1.272       .  A
C461        O467   1.277       .  A
C461       C1144   1.491       .  S
O462        C469   1.274       .  A
H463        C476   1.081       .  S
C464        O478   1.242       .  S
C464        O479   1.278   1_545  A
C464        H489   1.083       .  S
O465        C488   1.277       .  A
O466       Mg480   2.131   1_565  S
O467       Mg497   2.340       .  S
C468        O481   1.272       .  A
C468        O473   1.274       .  A
C468        C884   1.493       .  S
C469        O496   1.268   1_565  A
C469        C927   1.470       .  S
Mg470       O477   2.137       .  S
Mg470       O478   2.128       .  S
Mg470       O471   2.322       .  S
Mg470       O472   2.310       .  S
Mg470       O499   2.274       .  S
O472        C476   1.273       .  A
O473       Mg480   2.349       .  S
O474        C493   1.269       .  A
O475        C495   1.280       .  A
O475       Mg491   2.383       .  S
O477       Mg491   2.112   1_545  S
O477        C488   1.241       .  S
O478       Mg497   2.150       .  S
O479       Mg491   2.328       .  S
Mg480       O496   2.218       .  S
O481       Mg497   2.252       .  S
H482        C487   1.082       .  S
O483       Mg491   2.143       .  S
O483        C486   1.237       .  S
H484        C486   1.082       .  S
H485        C488   1.079       .  S
O490       Mg497   2.309       .  S
C493        O498   1.279       .  A
C493       C1487   1.482       .  S
O494        C495   1.268       .  A
C495       C1577   1.517       .  S
C500        C887   1.622       .  S
C500        C907   1.617       .  S
C500        C967   1.613       .  S
C500       C1127   1.578       .  S
O501       Mg503   2.115   1_556  S
O501       Mg509   2.131   1_545  S
O501        C536   1.239       .  S
C502        O515   1.239       .  S
C502        O539   1.272       .  A
C502        H541   1.083       .  S
Mg503       O532   2.129       .  S
Mg503       O547   2.279       .  S
Mg503       O543   2.240       .  S
Mg503       O514   2.300       .  S
O504       Mg546   2.122       .  S
O504       Mg529   2.119       .  S
O504        C525   1.239       .  S
O505        C536   1.273       .  A
O505       Mg529   2.309   1_545  S
C506        O508   1.271       .  A
C506        O520   1.275   1_545  A
C506        C914   1.470       .  S
O507        C535   1.272   1_565  A
O507       Mg509   2.303   1_554  S
O508       Mg540   2.240       .  S
Mg509       O515   2.140       .  S
Mg509       O523   2.323   1_565  S
Mg509       O511   2.318       .  S
C510        O548   1.272       .  A
C510        O516   1.269   1_554  A
C510       C1177   1.481       .  S
O511        C518   1.279       .  A
H512        C525   1.082       .  S
C513        O527   1.237       .  S
C513        O528   1.269       .  A
C513        H538   1.080       .  S
O514        C537   1.272       .  A
O515       Mg529   2.139       .  S
O516       Mg546   2.265       .  S
C517        O530   1.267       .  A
C517        O522   1.279       .  A
C517        C864   1.483       .  S
C518        O545   1.272       .  A
C518       C1667   1.486       .  S
Mg519       O526   2.124   1_565  S
Mg519       O527   2.128       .  S
Mg519       O520   2.301       .  S
Mg519       O521   2.306   1_564  S
Mg519       O548   2.277       .  S
O521        C525   1.273   1_545  A
O522       Mg529   2.342       .  S
O523        C542   1.277       .  A
O524        C544   1.275       .  A
O524       Mg540   2.307       .  S
O526       Mg540   2.146       .  S
O526        C537   1.238       .  S
O527       Mg546   2.103   1_554  S
O528       Mg540   2.289   1_565  S
Mg529       O545   2.252       .  S
O530       Mg546   2.240       .  S
H531        C536   1.080       .  S
O532       Mg540   2.118       .  S
O532        C535   1.239       .  S
H533        C535   1.082       .  S
H534        C537   1.083       .  S
O539       Mg546   2.299       .  S
C542        O547   1.267   1_556  A
C542       C1404   1.519       .  S
O543        C544   1.267       .  A
C544        C874   1.482       .  S
C549        C857   1.614       .  S
C549        C877   1.579       .  S
C549        C977   1.625       .  S
C549       C1077   1.630       .  S
O550       Mg552   2.150       .  S
O550       Mg558   2.136   1_554  S
O550        C585   1.240       .  S
C551        O564   1.236       .  S
C551        O588   1.268       .  A
C551        H590   1.082       .  S
Mg552       O581   2.142       .  S
Mg552       O596   2.376       .  S
Mg552       O592   2.279       .  S
Mg552       O563   2.302       .  S
O553       Mg595   2.140       .  S
O553       Mg578   2.113       .  S
O553        C574   1.239   1_556  S
O554        C585   1.273       .  A
O554       Mg578   2.302   1_554  S
C555        O557   1.274       .  A
C555        O569   1.279       .  A
C555        C854   1.497       .  S
O556        C584   1.273   1_556  A
O556       Mg558   2.306       .  S
O557       Mg589   2.282       .  S
Mg558       O564   2.080       .  S
Mg558       O572   2.169       .  S
Mg558       O560   2.346       .  S
C559        O597   1.270       .  A
C559        O565   1.272   1_554  A
C559        C947   1.464       .  S
O560        C567   1.278       .  A
H561        C574   1.081       .  S
C562        O576   1.238   1_556  S
C562        O577   1.272   1_556  A
C562        H587   1.081       .  S
O563        C586   1.272       .  A
O564       Mg578   2.121       .  S
O565       Mg595   2.283       .  S
C566        O579   1.274       .  A
C566        O571   1.274       .  A
C566       C1377   1.478       .  S
C567        O594   1.269       .  A
C567        C847   1.478       .  S
Mg568       O575   2.114       .  S
Mg568       O576   2.142       .  S
Mg568       O569   2.341       .  S
Mg568       O570   2.296       .  S
Mg568       O597   2.225       .  S
O570        C574   1.272       .  A
O571       Mg578   2.314       .  S
O572        C591   1.264   1_556  A
O573        C593   1.274       .  A
O573       Mg589   2.313       .  S
O575       Mg589   2.123       .  S
O575        C586   1.238       .  S
O576       Mg595   2.139   1_554  S
O577       Mg589   2.302       .  S
Mg578       O594   2.230       .  S
O579       Mg595   2.263       .  S
H580        C585   1.081       .  S
O581       Mg589   2.150       .  S
O581        C584   1.239       .  S
H582        C584   1.081       .  S
H583        C586   1.082       .  S
O588       Mg595   2.278       .  S
C591        O596   1.284       .  A
C591       C1507   1.479       .  S
O592        C593   1.278       .  A
C593       C1297   1.478       .  S
O598       Mg600   2.136       .  S
O598       Mg606   2.147   1_655  S
O598        C633   1.238       .  S
C599        O612   1.238       .  S
C599        O636   1.272       .  A
C599        H638   1.082       .  S
Mg600       O629   2.139       .  S
Mg600       O644   2.307       .  S
Mg600       O640   2.291       .  S
Mg600       O611   2.304       .  S
O601       Mg643   2.145       .  S
O601       Mg626   2.126       .  S
O601        C622   1.238       .  S
O602        C633   1.272       .  A
O602       Mg626   2.300   1_655  S
C603        O605   1.270       .  A
C603        O617   1.276   1_655  A
C603       C1007   1.487       .  S
O604        C632   1.272   1_455  A
O604       Mg606   2.299       .  S
O605       Mg637   2.255       .  S
Mg606       O612   2.141       .  S
Mg606       O620   2.293   1_455  S
Mg606       O608   2.319       .  S
C607        O645   1.273       .  A
C607        O613   1.275       .  A
C607        C834   1.494       .  S
O608        C615   1.279       .  A
H609        C622   1.080       .  S
C610        O624   1.239       .  S
C610        O625   1.274       .  A
C610        H635   1.082       .  S
O611        C634   1.272       .  A
O612       Mg626   2.146       .  S
O613       Mg643   2.316       .  S
C614        O627   1.271       .  A
C614        O619   1.277       .  A
C614       C1277   1.483       .  S
C615        O642   1.271       .  A
C615        C824   1.482       .  S
Mg616       O623   2.131   1_455  S
Mg616       O624   2.138       .  S
Mg616       O617   2.317       .  S
Mg616       O618   2.297       .  S
Mg616       O645   2.270       .  S
O618        C622   1.271       .  A
O619       Mg626   2.317       .  S
O620        C639   1.275       .  A
O621        C641   1.276       .  A
O621       Mg637   2.311       .  S
O623       Mg637   2.124       .  S
O623        C634   1.238       .  S
O624       Mg643   2.134       .  S
O625       Mg637   2.311   1_455  S
Mg626       O642   2.262       .  S
O627       Mg643   2.259       .  S
H628        C633   1.082       .  S
O629       Mg637   2.122       .  S
O629        C632   1.239       .  S
H630        C632   1.080       .  S
H631        C634   1.082       .  S
O636       Mg643   2.302       .  S
C639        O644   1.277       .  A
C639       C1597   1.488       .  S
O640        C641   1.274       .  A
C641       C1347   1.496       .  S
O646       Mg648   2.137       .  S
O646       Mg654   2.145       .  S
O646        C681   1.241       .  S
C647        O660   1.238       .  S
C647        O684   1.271   1_554  A
C647        H686   1.082       .  S
Mg648       O677   2.137   1_554  S
Mg648       O692   2.311       .  S
Mg648       O688   2.282   1_554  S
Mg648       O659   2.299   1_455  S
O649       Mg691   2.144   1_554  S
O649       Mg674   2.114       .  S
O649        C670   1.239       .  S
O650        C681   1.275   1_655  A
O650       Mg674   2.308       .  S
C651        O653   1.272       .  A
C651        O665   1.281       .  A
C651       C1604   1.492       .  S
O652        C680   1.271       .  A
O652       Mg654   2.293   1_556  S
O653       Mg685   2.264   1_655  S
Mg654       O660   2.127       .  S
Mg654       O668   2.275       .  S
Mg654       O656   2.300       .  S
C655        O693   1.276       .  A
C655        O661   1.279       .  A
C655       C1497   1.482       .  S
O656        C663   1.276       .  A
H657        C670   1.082       .  S
C658        O672   1.239       .  S
C658        O673   1.272       .  A
C658        H683   1.080       .  S
O659        C682   1.272   1_554  A
O660       Mg674   2.144   1_455  S
O661       Mg691   2.325       .  S
C662        O675   1.275       .  A
C662        O667   1.274       .  A
C662       C1237   1.513       .  S
C663        O690   1.270       .  A
C663        C814   1.478       .  S
Mg664       O671   2.131       .  S
Mg664       O672   2.141       .  S
Mg664       O665   2.331       .  S
Mg664       O666   2.296   1_556  S
Mg664       O693   2.278       .  S
O666        C670   1.272       .  A
O667       Mg674   2.304       .  S
O668        C687   1.274       .  A
O669        C689   1.278       .  A
O669       Mg685   2.315       .  S
O671       Mg685   2.144   1_655  S
O671        C682   1.238       .  S
O672       Mg691   2.128       .  S
O673       Mg685   2.296   1_655  S
Mg674       O690   2.257   1_655  S
O675       Mg691   2.295   1_554  S
H676        C681   1.080       .  S
O677       Mg685   2.119       .  S
O677        C680   1.238       .  S
H678        C680   1.082       .  S
H679        C682   1.082       .  S
O684       Mg691   2.295   1_455  S
C687        O692   1.276       .  A
C687        C937   1.482       .  S
O688        C689   1.274       .  A
C689       C1084   1.490       .  S
C694        C817   1.586       .  S
C694        C837   1.614       .  S
C694        C957   1.608       .  S
C694       C1214   1.637       .  S
O695       Mg697   2.120       .  S
O695       Mg703   2.145       .  S
O695        C730   1.238       .  S
C696        O709   1.238       .  S
C696        O733   1.273       .  A
C696        H735   1.082       .  S
Mg697       O726   2.134       .  S
Mg697       O741   2.300       .  S
Mg697       O737   2.277       .  S
Mg697       O708   2.294       .  S
O698       Mg740   2.142       .  S
O698       Mg723   2.139       .  S
O698        C719   1.239       .  S
O699        C730   1.272       .  A
O699       Mg723   2.301       .  S
C700        O702   1.270       .  A
C700        O714   1.275       .  A
C700       C1137   1.475       .  S
O701        C729   1.270       .  A
O701       Mg703   2.287       .  S
O702       Mg734   2.250       .  S
Mg703       O709   2.154       .  S
Mg703       O717   2.297       .  S
Mg703       O705   2.259       .  S
C704        O742   1.271       .  A
C704        O710   1.281       .  A
C704       C1387   1.501       .  S
O705        C712   1.270       .  A
H706        C719   1.080       .  S
C707        O721   1.240       .  S
C707        O722   1.275       .  A
C707        H732   1.082       .  S
O708        C731   1.270       .  A
O709       Mg723   2.146       .  S
O710       Mg740   2.358       .  S
C711        O724   1.274       .  A
C711        O716   1.275       .  A
C711       C1267   1.484       .  S
C712        O739   1.271       .  A
C712       C1474   1.472       .  S
Mg713       O720   2.127       .  S
Mg713       O721   2.132       .  S
Mg713       O714   2.299       .  S
Mg713       O715   2.305       .  S
Mg713       O742   2.259       .  S
O715        C719   1.273       .  A
O716       Mg723   2.309       .  S
O717        C736   1.271       .  A
O718        C738   1.280       .  A
O718       Mg734   2.337       .  S
O720       Mg734   2.135       .  S
O720        C731   1.237       .  S
O721       Mg740   2.132       .  S
O722       Mg734   2.312       .  S
Mg723       O739   2.265       .  S
O724       Mg740   2.271       .  S
H725        C730   1.082       .  S
O726       Mg734   2.106       .  S
O726        C729   1.237       .  S
H727        C729   1.080       .  S
H728        C731   1.082       .  S
O733       Mg740   2.316       .  S
C736        O741   1.276       .  A
C736       C1307   1.510       .  S
O737        C738   1.274       .  A
C738       C1337   1.488       .  S
C743        C807   1.606       .  S
C743        C827   1.598       .  S
C743        C897   1.621       .  S
C743       C1747   1.619   1_455  S
O744       Mg746   2.137       .  S
O744       Mg752   2.147       .  S
O744        C779   1.239       .  S
C745        O758   1.238       .  S
C745        O782   1.273       .  A
C745        H784   1.082       .  S
Mg746       O775   2.147       .  S
Mg746       O790   2.286       .  S
Mg746       O786   2.278       .  S
Mg746       O757   2.293       .  S
O747       Mg789   2.147       .  S
O747       Mg772   2.143       .  S
O747        C768   1.238       .  S
O748        C779   1.272       .  A
O748       Mg772   2.300       .  S
C749        O751   1.272       .  A
C749        O763   1.272       .  A
C749        C804   1.486       .  S
O750        C778   1.272       .  A
O750       Mg752   2.299       .  S
O751       Mg783   2.279       .  S
Mg752       O758   2.152       .  S
Mg752       O766   2.303       .  S
Mg752       O754   2.315       .  S
C753        O791   1.269       .  A
C753        O759   1.281       .  A
C753       C1257   1.494       .  S
O754        C761   1.279       .  A
H755        C768   1.082       .  S
C756        O770   1.241       .  S
C756        O771   1.277       .  A
C756        H781   1.079       .  S
O757        C780   1.269       .  A
O758       Mg772   2.152       .  S
O759       Mg789   2.357       .  S
C760        O773   1.274       .  A
C760        O765   1.281       .  A
C760       C1357   1.498       .  S
C761        O788   1.276       .  A
C761        C794   1.492       .  S
Mg762       O769   2.123       .  S
Mg762       O770   2.127       .  S
Mg762       O763   2.282       .  S
Mg762       O764   2.302       .  S
Mg762       O791   2.254       .  S
O764        C768   1.272       .  A
O765       Mg772   2.321       .  S
O766        C785   1.276       .  A
O767        C787   1.279       .  A
O767       Mg783   2.335       .  S
O769       Mg783   2.132       .  S
O769        C780   1.236       .  S
O770       Mg789   2.147       .  S
O771       Mg783   2.323       .  S
Mg772       O788   2.302       .  S
O773       Mg789   2.291       .  S
H774        C779   1.080       .  S
O775       Mg783   2.129       .  S
O775        C778   1.239       .  S
H776        C778   1.082       .  S
H777        C780   1.082       .  S
O782       Mg789   2.313       .  S
C785        O790   1.274       .  A
C785       C1167   1.486       .  S
O786        C787   1.274       .  A
C787       C1427   1.494       .  S
C792        C797   1.620       .  S
C792        C844   1.603       .  S
C792        C867   1.627       .  S
C792       C1717   1.624       .  S
C793        C794   1.405       .  A
C793        C798   1.430       .  A
C793       Br800   1.938       .  S
C794        C795   1.389       .  A
C795        C796   1.404       .  A
C795       Br802   1.942       .  S
C796        C797   1.458       .  A
C796       Br801   1.930       .  S
C797        C798   1.460       .  A
C798       Br799   1.936       .  S
C803        C804   1.405       .  A
C803        C808   1.424       .  A
C803       Br810   1.941       .  S
C804        C805   1.398       .  A
C805        C806   1.406       .  A
C805       Br812   1.955       .  S
C806        C807   1.459       .  A
C806       Br811   1.947       .  S
C807        C808   1.456       .  A
C808       Br809   1.948       .  S
C813        C814   1.392       .  A
C813        C818   1.405       .  A
C813       Br820   1.945       .  S
C814        C815   1.404       .  A
C815        C816   1.421       .  A
C815       Br822   1.944       .  S
C816        C817   1.455       .  A
C816       Br821   1.936       .  S
C817        C818   1.450       .  A
C818       Br819   1.923       .  S
C823        C824   1.406       .  A
C823        C828   1.424       .  A
C823       Br830   1.936       .  S
C824        C825   1.390       .  A
C825        C826   1.403       .  A
C825       Br832   1.946       .  S
C826        C827   1.455       .  A
C826       Br831   1.927       .  S
C827        C828   1.452       .  A
C828       Br829   1.935       .  S
C833        C834   1.408       .  A
C833        C838   1.405       .  A
C833       Br840   1.936       .  S
C834        C835   1.409       .  A
C835        C836   1.419       .  A
C835       Br842   1.938       .  S
C836        C837   1.450       .  A
C836       Br841   1.939       .  S
C837        C838   1.428       .  A
C838       Br839   1.924       .  S
C843        C844   1.455       .  A
C843        C848   1.427       .  A
C843       Br850   1.942       .  S
C844        C845   1.457       .  A
C845        C846   1.402       .  A
C845       Br852   1.934       .  S
C846        C847   1.390       .  A
C846       Br851   1.949       .  S
C847        C848   1.403       .  A
C848       Br849   1.936   1_556  S
C853        C854   1.402       .  A
C853        C858   1.416       .  A
C853       Br860   1.938       .  S
C854        C855   1.406       .  A
C855        C856   1.419       .  A
C855       Br862   1.939       .  S
C856        C857   1.446       .  A
C856       Br861   1.928       .  S
C857        C858   1.447       .  A
C858       Br859   1.922       .  S
C863        C864   1.392       .  A
C863        C868   1.417       .  A
C863       Br870   1.945       .  S
C864        C865   1.392       .  A
C865        C866   1.420       .  A
C865       Br872   1.950       .  S
C866        C867   1.474       .  A
C866       Br871   1.952       .  S
C867        C868   1.458       .  A
C868       Br869   1.932       .  S
C873        C874   1.411       .  A
C873        C878   1.419       .  A
C873       Br880   1.942       .  S
C874        C875   1.398       .  A
C875        C876   1.407       .  A
C875       Br882   1.947       .  S
C876        C877   1.454       .  A
C876       Br881   1.941       .  S
C877        C878   1.447       .  A
C878       Br879   1.943       .  S
C883        C884   1.391       .  A
C883        C888   1.379       .  A
C883       Br890   1.937       .  S
C884        C885   1.414       .  A
C885        C886   1.435       .  A
C885       Br892   1.928       .  S
C886        C887   1.455       .  A
C886       Br891   1.938       .  S
C887        C888   1.448       .  A
C888       Br889   1.949       .  S
C893        C894   1.394   1_455  A
C893        C898   1.393       .  A
C893       Br900   1.931       .  S
C894        C895   1.410       .  A
C895        C896   1.425       .  A
C895       Br902   1.920       .  S
C896        C897   1.454   1_655  A
C896       Br901   1.936       .  S
C897        C898   1.454       .  A
C898       Br899   1.942       .  S
C903        C904   1.392       .  A
C903        C908   1.414       .  A
C903       Br910   1.949       .  S
C904        C905   1.401       .  A
C905        C906   1.413       .  A
C905       Br912   1.931       .  S
C906        C907   1.439       .  A
C906       Br911   1.936       .  S
C907        C908   1.472       .  A
C908       Br909   1.955       .  S
C913        C914   1.397   1_565  A
C913        C918   1.414       .  A
C913       Br920   1.940       .  S
C914        C915   1.389       .  A
C915        C916   1.407       .  A
C915       Br922   1.952       .  S
C916        C917   1.468       .  A
C916       Br921   1.955       .  S
C917        C918   1.452   1_545  A
C918       Br919   1.938       .  S
C923        C924   1.459       .  A
C923        C928   1.401       .  A
C923       Br930   1.941       .  S
C924        C925   1.456       .  A
C925        C926   1.421       .  A
C925       Br932   1.940       .  S
C926        C927   1.399       .  A
C926       Br931   1.941       .  S
C927        C928   1.389       .  A
C928       Br929   1.951       .  S
C933        C934   1.456   1_556  A
C933        C938   1.421       .  A
C933       Br940   1.933       .  S
C934        C935   1.469       .  A
C935        C936   1.407       .  A
C935       Br942   1.954       .  S
C936        C937   1.387       .  A
C936       Br941   1.942       .  S
C937        C938   1.398   1_554  A
C938       Br939   1.940       .  S
C943        C944   1.450       .  A
C943        C948   1.419   1_556  A
C943       Br950   1.937       .  S
C944        C945   1.457       .  A
C945        C946   1.397   1_556  A
C945       Br952   1.936       .  S
C946        C947   1.388       .  A
C946       Br951   1.950       .  S
C947        C948   1.403       .  A
C948       Br949   1.941       .  S
C953        C954   1.409       .  A
C953        C958   1.418       .  A
C953       Br960   1.937       .  S
C954        C955   1.397       .  A
C955        C956   1.412       .  A
C955       Br962   1.945       .  S
C956        C957   1.462       .  A
C956       Br961   1.952       .  S
C957        C958   1.448       .  A
C958       Br959   1.952       .  S
C963        C964   1.398       .  A
C963        C968   1.413       .  A
C963       Br970   1.933       .  S
C964        C965   1.411       .  A
C965        C966   1.421       .  A
C965       Br972   1.939       .  S
C966        C967   1.443       .  A
C966       Br971   1.925       .  S
C967        C968   1.445       .  A
C968       Br969   1.921       .  S
C973        C974   1.389       .  A
C973        C978   1.414       .  A
C973       Br980   1.948       .  S
C974        C975   1.401       .  A
C975        C976   1.415       .  A
C975       Br982   1.928       .  S
C976        C977   1.439       .  A
C976       Br981   1.937       .  S
C977        C978   1.474       .  A
C978       Br979   1.948       .  S
C983        C984   1.384       .  A
C983        C988   1.399       .  A
C983       Br990   1.944       .  S
C984        C985   1.402       .  A
C985        C986   1.423       .  A
C985       Br992   1.935       .  S
C986        C987   1.452       .  A
C986       Br991   1.936       .  S
C987        C988   1.458       .  A
C988       Br989   1.934       .  S
C993        C994   1.406       .  A
C993        C998   1.432       .  A
C993      Br1000   1.933       .  S
C994        C995   1.382       .  A
C995        C996   1.402       .  A
C995      Br1002   1.944       .  S
C996        C997   1.464       .  A
C996      Br1001   1.935       .  S
C997        C998   1.455       .  A
C998       Br999   1.934       .  S
C1003      C1004   1.452       .  A
C1003      C1008   1.425       .  A
C1003     Br1010   1.944       .  S
C1004      C1005   1.457       .  A
C1005      C1006   1.405       .  A
C1005     Br1012   1.936       .  S
C1006      C1007   1.396       .  A
C1006     Br1011   1.951       .  S
C1007      C1008   1.410       .  A
C1008     Br1009   1.942       .  S
C1013      C1014   1.390       .  A
C1013      C1018   1.413       .  A
C1013     Br1020   1.947       .  S
C1014      C1015   1.399   1_455  A
C1015      C1016   1.418       .  A
C1015     Br1022   1.946       .  S
C1016      C1017   1.456   1_655  A
C1016     Br1021   1.935       .  S
C1017      C1018   1.474       .  A
C1018     Br1019   1.956       .  S
C1023      C1024   1.462       .  A
C1023      C1028   1.401       .  A
C1023     Br1030   1.930       .  S
C1024      C1025   1.457       .  A
C1025      C1026   1.430       .  A
C1025     Br1032   1.938       .  S
C1026      C1027   1.404       .  A
C1026     Br1031   1.934       .  S
C1027      C1028   1.382       .  A
C1028     Br1029   1.944       .  S
C1033      C1034   1.383       .  A
C1033      C1038   1.397   1_565  A
C1033     Br1040   1.940       .  S
C1034      C1035   1.411       .  A
C1035      C1036   1.433       .  A
C1035     Br1042   1.931       .  S
C1036      C1037   1.455       .  A
C1036     Br1041   1.940       .  S
C1037      C1038   1.464   1_565  A
C1038     Br1039   1.944       .  S
C1043      C1044   1.397   1_565  A
C1043      C1048   1.419   1_565  A
C1043     Br1050   1.932       .  S
C1044      C1045   1.390       .  A
C1045      C1046   1.418       .  A
C1045     Br1052   1.955       .  S
C1046      C1047   1.473       .  A
C1046     Br1051   1.939       .  S
C1047      C1048   1.449       .  A
C1048     Br1049   1.942       .  S
C1053      C1054   1.398       .  A
C1053      C1058   1.403       .  A
C1053     Br1060   1.949       .  S
C1054      C1055   1.404       .  A
C1055      C1056   1.416       .  A
C1055     Br1062   1.937       .  S
C1056      C1057   1.450       .  A
C1056     Br1061   1.953       .  S
C1057      C1058   1.445       .  A
C1058     Br1059   1.929       .  S
C1063      C1064   1.395       .  A
C1063      C1068   1.408       .  A
C1063     Br1070   1.959       .  S
C1064      C1065   1.410       .  A
C1065      C1066   1.430       .  A
C1065     Br1072   1.936       .  S
C1066      C1067   1.453       .  A
C1066     Br1071   1.935       .  S
C1067      C1068   1.472       .  A
C1068     Br1069   1.960       .  S
C1073      C1074   1.408       .  A
C1073      C1078   1.430       .  A
C1073     Br1080   1.935       .  S
C1074      C1075   1.398       .  A
C1075      C1076   1.402       .  A
C1075     Br1082   1.944       .  S
C1076      C1077   1.465       .  A
C1076     Br1081   1.959       .  S
C1077      C1078   1.457       .  A
C1078     Br1079   1.942       .  S
C1083      C1084   1.406       .  A
C1083      C1088   1.426       .  A
C1083     Br1090   1.940       .  S
C1084      C1085   1.394       .  A
C1085      C1086   1.410       .  A
C1085     Br1092   1.947       .  S
C1086      C1087   1.456       .  A
C1086     Br1091   1.930       .  S
C1087      C1088   1.456       .  A
C1088     Br1089   1.940   1_455  S
C1093      C1094   1.406       .  A
C1093      C1098   1.424       .  A
C1093     Br1100   1.935       .  S
C1094      C1095   1.391   1_655  A
C1095      C1096   1.393       .  A
C1095     Br1102   1.940       .  S
C1096      C1097   1.459   1_455  A
C1096     Br1101   1.952       .  S
C1097      C1098   1.456       .  A
C1098     Br1099   1.936       .  S
C1103      C1104   1.395       .  A
C1103      C1108   1.409       .  A
C1103     Br1110   1.951       .  S
C1104      C1105   1.405       .  A
C1105      C1106   1.427       .  A
C1105     Br1112   1.939       .  S
C1106      C1107   1.456       .  A
C1106     Br1111   1.942       .  S
C1107      C1108   1.460       .  A
C1108     Br1109   1.938       .  S
C1113      C1114   1.399       .  A
C1113      C1118   1.417       .  A
C1113     Br1120   1.958       .  S
C1114      C1115   1.415       .  A
C1115      C1116   1.428       .  A
C1115     Br1122   1.933       .  S
C1116      C1117   1.445       .  A
C1116     Br1121   1.936       .  S
C1117      C1118   1.478       .  A
C1118     Br1119   1.962       .  S
C1123      C1124   1.395       .  A
C1123      C1128   1.403       .  A
C1123     Br1130   1.946       .  S
C1124      C1125   1.410       .  A
C1125      C1126   1.417       .  A
C1125     Br1132   1.941       .  S
C1126      C1127   1.442       .  A
C1126     Br1131   1.939       .  S
C1127      C1128   1.459       .  A
C1128     Br1129   1.948       .  S
C1133      C1134   1.452       .  A
C1133      C1138   1.403       .  A
C1133     Br1140   1.938       .  S
C1134      C1135   1.444       .  A
C1135      C1136   1.421       .  A
C1135     Br1142   1.939       .  S
C1136      C1137   1.410       .  A
C1136     Br1141   1.937       .  S
C1137      C1138   1.395       .  A
C1138     Br1139   1.945       .  S
C1143      C1144   1.403       .  A
C1143      C1148   1.419       .  A
C1143     Br1150   1.934       .  S
C1144      C1145   1.404       .  A
C1145      C1146   1.414       .  A
C1145     Br1152   1.940       .  S
C1146      C1147   1.441       .  A
C1146     Br1151   1.921       .  S
C1147      C1148   1.441       .  A
C1148     Br1149   1.923       .  S
C1153      C1154   1.475       .  A
C1153      C1158   1.415       .  A
C1153     Br1160   1.947       .  S
C1154      C1155   1.440       .  A
C1155      C1156   1.417       .  A
C1155     Br1162   1.932       .  S
C1156      C1157   1.400       .  A
C1156     Br1161   1.926       .  S
C1157      C1158   1.392       .  A
C1158     Br1159   1.951       .  S
C1163      C1164   1.461       .  A
C1163      C1168   1.424       .  A
C1163     Br1170   1.942   1_556  S
C1164      C1165   1.454       .  A
C1165      C1166   1.408       .  A
C1165     Br1172   1.930       .  S
C1166      C1167   1.394       .  A
C1166     Br1171   1.946       .  S
C1167      C1168   1.401       .  A
C1168     Br1169   1.940       .  S
C1173      C1174   1.455       .  A
C1173      C1178   1.407   1_556  A
C1173     Br1180   1.939   1_556  S
C1174      C1175   1.459       .  A
C1175      C1176   1.421   1_556  A
C1175     Br1182   1.949       .  S
C1176      C1177   1.403       .  A
C1176     Br1181   1.944       .  S
C1177      C1178   1.400       .  A
C1178     Br1179   1.956       .  S
C1183      C1184   1.463       .  A
C1183      C1188   1.415       .  A
C1183     Br1190   1.949       .  S
C1184      C1185   1.454   1_556  A
C1185      C1186   1.414       .  A
C1185     Br1192   1.929       .  S
C1186      C1187   1.394   1_554  A
C1186     Br1191   1.942       .  S
C1187      C1188   1.393       .  A
C1188     Br1189   1.940       .  S
C1193      C1194   1.404       .  A
C1193      C1198   1.421       .  A
C1193     Br1200   1.934       .  S
C1194      C1195   1.394       .  A
C1195      C1196   1.398       .  A
C1195     Br1202   1.942       .  S
C1196      C1197   1.458       .  A
C1196     Br1201   1.952       .  S
C1197      C1198   1.452       .  A
C1198     Br1199   1.935       .  S
C1203      C1204   1.408       .  A
C1203      C1208   1.427       .  A
C1203     Br1210   1.935       .  S
C1204      C1205   1.391       .  A
C1205      C1206   1.393       .  A
C1205     Br1212   1.939       .  S
C1206      C1207   1.459       .  A
C1206     Br1211   1.955       .  S
C1207      C1208   1.456       .  A
C1208     Br1209   1.936       .  S
C1213      C1214   1.448       .  A
C1213      C1218   1.403       .  A
C1213     Br1220   1.947       .  S
C1214      C1215   1.462       .  A
C1215      C1216   1.435       .  A
C1215     Br1222   1.951       .  S
C1216      C1217   1.411       .  A
C1216     Br1221   1.941       .  S
C1217      C1218   1.396       .  A
C1218     Br1219   1.940       .  S
C1223      C1224   1.442       .  A
C1223      C1228   1.422       .  A
C1223     Br1230   1.920       .  S
C1224      C1225   1.445       .  A
C1225      C1226   1.420       .  A
C1225     Br1232   1.944       .  S
C1226      C1227   1.414       .  A
C1226     Br1231   1.944       .  S
C1227      C1228   1.409       .  A
C1228     Br1229   1.936       .  S
C1233      C1234   1.440   1_455  A
C1233      C1238   1.418       .  A
C1233     Br1240   1.951       .  S
C1234      C1235   1.439       .  A
C1235      C1236   1.422       .  A
C1235     Br1242   1.930       .  S
C1236      C1237   1.417       .  A
C1236     Br1241   1.940       .  S
C1237      C1238   1.420   1_655  A
C1238     Br1239   1.945       .  S
C1243      C1244   1.406       .  A
C1243      C1248   1.412       .  A
C1243     Br1250   1.937       .  S
C1244      C1245   1.411   1_455  A
C1245      C1246   1.420       .  A
C1245     Br1252   1.959       .  S
C1246      C1247   1.452       .  A
C1246     Br1251   1.919       .  S
C1247      C1248   1.442   1_655  A
C1248     Br1249   1.923       .  S
C1253      C1254   1.421       .  A
C1253      C1258   1.422       .  A
C1253     Br1260   1.923       .  S
C1254      C1255   1.423       .  A
C1255      C1256   1.404       .  A
C1255     Br1262   1.922       .  S
C1256      C1257   1.405       .  A
C1256     Br1261   1.930       .  S
C1257      C1258   1.420       .  A
C1258     Br1259   1.931       .  S
C1263      C1264   1.428       .  A
C1263      C1268   1.404       .  A
C1263     Br1270   1.917       .  S
C1264      C1265   1.427       .  A
C1265      C1266   1.415       .  A
C1265     Br1272   1.924       .  S
C1266      C1267   1.410       .  A
C1266     Br1271   1.933       .  S
C1267      C1268   1.405       .  A
C1268     Br1269   1.936       .  S
C1273      C1274   1.427       .  A
C1273      C1278   1.416       .  A
C1273     Br1280   1.923       .  S
C1274      C1275   1.432       .  A
C1275      C1276   1.406       .  A
C1275     Br1282   1.918       .  S
C1276      C1277   1.402       .  A
C1276     Br1281   1.939       .  S
C1277      C1278   1.410       .  A
C1278     Br1279   1.933       .  S
C1283      C1284   1.429       .  A
C1283      C1288   1.423       .  A
C1283     Br1290   1.923       .  S
C1284      C1285   1.428       .  A
C1285      C1286   1.410       .  A
C1285     Br1292   1.924       .  S
C1286      C1287   1.406       .  A
C1286     Br1291   1.932       .  S
C1287      C1288   1.417       .  A
C1288     Br1289   1.932       .  S
C1293      C1294   1.459       .  A
C1293      C1298   1.429       .  A
C1293     Br1300   1.937       .  S
C1294      C1295   1.463       .  A
C1295      C1296   1.401       .  A
C1295     Br1302   1.928       .  S
C1296      C1297   1.380       .  A
C1296     Br1301   1.946       .  S
C1297      C1298   1.402       .  A
C1298     Br1299   1.936       .  S
C1303      C1304   1.448       .  A
C1303      C1308   1.427       .  A
C1303     Br1310   1.933       .  S
C1304      C1305   1.472       .  A
C1305      C1306   1.408       .  A
C1305     Br1312   1.960       .  S
C1306      C1307   1.395       .  A
C1306     Br1311   1.954       .  S
C1307      C1308   1.412       .  A
C1308     Br1309   1.934       .  S
C1313      C1314   1.394       .  A
C1313      C1318   1.405       .  A
C1313     Br1320   1.953       .  S
C1314      C1315   1.410       .  A
C1315      C1316   1.427       .  A
C1315     Br1322   1.940       .  S
C1316      C1317   1.451       .  A
C1316     Br1321   1.942       .  S
C1317      C1318   1.458       .  A
C1318     Br1319   1.933       .  S
C1323      C1324   1.407       .  A
C1323      C1328   1.426       .  A
C1323     Br1330   1.940       .  S
C1324      C1325   1.396       .  A
C1325      C1326   1.411       .  A
C1325     Br1332   1.945       .  S
C1326      C1327   1.454       .  A
C1326     Br1331   1.931       .  S
C1327      C1328   1.454       .  A
C1328     Br1329   1.937       .  S
C1333      C1334   1.454       .  A
C1333      C1338   1.422       .  A
C1333     Br1340   1.933       .  S
C1334      C1335   1.464       .  A
C1335      C1336   1.410       .  A
C1335     Br1342   1.949       .  S
C1336      C1337   1.391       .  A
C1336     Br1341   1.940       .  S
C1337      C1338   1.400       .  A
C1338     Br1339   1.937       .  S
C1343      C1344   1.460       .  A
C1343      C1348   1.412       .  A
C1343     Br1350   1.941       .  S
C1344      C1345   1.454       .  A
C1345      C1346   1.427       .  A
C1345     Br1352   1.940       .  S
C1346      C1347   1.407       .  A
C1346     Br1351   1.941       .  S
C1347      C1348   1.397       .  A
C1348     Br1349   1.950       .  S
C1353      C1354   1.447       .  A
C1353      C1358   1.394       .  A
C1353     Br1360   1.943       .  S
C1354      C1355   1.462       .  A
C1355      C1356   1.435       .  A
C1355     Br1362   1.950       .  S
C1356      C1357   1.412       .  A
C1356     Br1361   1.940       .  S
C1357      C1358   1.390       .  A
C1358     Br1359   1.939       .  S
C1363      C1364   1.463       .  A
C1363      C1368   1.411       .  A
C1363     Br1370   1.950       .  S
C1364      C1365   1.449       .  A
C1365      C1366   1.423       .  A
C1365     Br1372   1.949       .  S
C1366      C1367   1.404       .  A
C1366     Br1371   1.932       .  S
C1367      C1368   1.393       .  A
C1368     Br1369   1.947       .  S
C1373      C1374   1.453       .  A
C1373      C1378   1.407       .  A
C1373     Br1380   1.919       .  S
C1374      C1375   1.451       .  A
C1375      C1376   1.422       .  A
C1375     Br1382   1.930       .  S
C1376      C1377   1.402       .  A
C1376     Br1381   1.936       .  S
C1377      C1378   1.387       .  A
C1378     Br1379   1.945       .  S
C1383      C1384   1.428       .  A
C1383      C1388   1.406       .  A
C1383     Br1390   1.926       .  S
C1384      C1385   1.443       .  A
C1385      C1386   1.424       .  A
C1385     Br1392   1.934       .  S
C1386      C1387   1.416       .  A
C1386     Br1391   1.937       .  S
C1387      C1388   1.408       .  A
C1388     Br1389   1.933       .  S
C1393      C1394   1.418       .  A
C1393      C1398   1.424       .  A
C1393     Br1400   1.942       .  S
C1394      C1395   1.415       .  A
C1395      C1396   1.412       .  A
C1395     Br1402   1.945       .  S
C1396      C1397   1.442       .  A
C1396     Br1401   1.952       .  S
C1397      C1398   1.441       .  A
C1398     Br1399   1.928       .  S
C1403      C1404   1.423   1_554  A
C1403      C1408   1.412       .  A
C1403     Br1410   1.944       .  S
C1404      C1405   1.416       .  A
C1405      C1406   1.424       .  A
C1405     Br1412   1.939       .  S
C1406      C1407   1.446   1_556  A
C1406     Br1411   1.929       .  S
C1407      C1408   1.443       .  A
C1408     Br1409   1.945       .  S
C1413      C1414   1.459   1_556  A
C1413      C1418   1.423       .  A
C1413     Br1420   1.928       .  S
C1414      C1415   1.445       .  A
C1415      C1416   1.414       .  A
C1415     Br1422   1.918       .  S
C1416      C1417   1.399       .  A
C1416     Br1421   1.927       .  S
C1417      C1418   1.404   1_554  A
C1418     Br1419   1.951       .  S
C1423      C1424   1.454       .  A
C1423      C1428   1.426       .  A
C1423     Br1430   1.933       .  S
C1424      C1425   1.454       .  A
C1425      C1426   1.414       .  A
C1425     Br1432   1.924       .  S
C1426      C1427   1.396       .  A
C1426     Br1431   1.943       .  S
C1427      C1428   1.406       .  A
C1428     Br1429   1.943       .  S
C1433      C1434   1.433       .  A
C1433      C1438   1.411       .  A
C1433     Br1440   1.923       .  S
C1434      C1435   1.447       .  A
C1435      C1436   1.426       .  A
C1435     Br1442   1.938       .  S
C1436      C1437   1.415       .  A
C1436     Br1441   1.935       .  S
C1437      C1438   1.406       .  A
C1438     Br1439   1.934       .  S
C1443      C1444   1.402       .  A
C1443      C1448   1.411       .  A
C1443     Br1450   1.945       .  S
C1444      C1445   1.415   1_565  A
C1445      C1446   1.425       .  A
C1445     Br1452   1.937       .  S
C1446      C1447   1.449   1_545  A
C1446     Br1451   1.950       .  S
C1447      C1448   1.458       .  A
C1448     Br1449   1.948       .  S
C1453      C1454   1.446       .  A
C1453      C1458   1.406   1_565  A
C1453     Br1460   1.949       .  S
C1454      C1455   1.458   1_565  A
C1455      C1456   1.433       .  A
C1455     Br1462   1.950   1_545  S
C1456      C1457   1.412       .  A
C1456     Br1461   1.939       .  S
C1457      C1458   1.404       .  A
C1458     Br1459   1.944       .  S
C1463      C1464   1.472       .  A
C1463      C1468   1.410       .  A
C1463     Br1470   1.952       .  S
C1464      C1465   1.452       .  A
C1465      C1466   1.436       .  A
C1465     Br1472   1.940       .  S
C1466      C1467   1.415       .  A
C1466     Br1471   1.932       .  S
C1467      C1468   1.395       .  A
C1468     Br1469   1.955       .  S
C1473      C1474   1.403       .  A
C1473      C1478   1.416       .  A
C1473     Br1480   1.941       .  S
C1474      C1475   1.399       .  A
C1475      C1476   1.405       .  A
C1475     Br1482   1.945       .  S
C1476      C1477   1.447       .  A
C1476     Br1481   1.933       .  S
C1477      C1478   1.450       .  A
C1478     Br1479   1.942       .  S
C1483      C1484   1.440       .  A
C1483      C1488   1.406       .  A
C1483     Br1490   1.923       .  S
C1484      C1485   1.441       .  A
C1485      C1486   1.414       .  A
C1485     Br1492   1.928       .  S
C1486      C1487   1.406       .  A
C1486     Br1491   1.940       .  S
C1487      C1488   1.398       .  A
C1488     Br1489   1.932       .  S
C1493      C1494   1.459       .  A
C1493      C1498   1.401       .  A
C1493     Br1500   1.948       .  S
C1494      C1495   1.448   1_556  A
C1495      C1496   1.422       .  A
C1495     Br1502   1.936       .  S
C1496      C1497   1.405   1_554  A
C1496     Br1501   1.933       .  S
C1497      C1498   1.389       .  A
C1498     Br1499   1.940       .  S
C1503      C1504   1.457   1_554  A
C1503      C1508   1.424       .  A
C1503     Br1510   1.945   1_554  S
C1504      C1505   1.458       .  A
C1505      C1506   1.407   1_556  A
C1505     Br1512   1.943       .  S
C1506      C1507   1.397       .  A
C1506     Br1511   1.954       .  S
C1507      C1508   1.402       .  A
C1508     Br1509   1.940       .  S
C1513      C1514   1.412       .  A
C1513      C1518   1.428       .  A
C1513     Br1520   1.923       .  S
C1514      C1515   1.399       .  A
C1515      C1516   1.393       .  A
C1515     Br1522   1.930       .  S
C1516      C1517   1.449       .  A
C1516     Br1521   1.941       .  S
C1517      C1518   1.453       .  A
C1518     Br1519   1.930       .  S
C1523      C1524   1.398       .  A
C1523      C1528   1.409       .  A
C1523     Br1530   1.943       .  S
C1524      C1525   1.402       .  A
C1525      C1526   1.416       .  A
C1525     Br1532   1.939       .  S
C1526      C1527   1.444       .  A
C1526     Br1531   1.922       .  S
C1527      C1528   1.448       .  A
C1528     Br1529   1.930       .  S
C1533      C1534   1.399       .  A
C1533      C1538   1.418       .  A
C1533     Br1540   1.930       .  S
C1534      C1535   1.391       .  A
C1535      C1536   1.418       .  A
C1535     Br1542   1.953       .  S
C1536      C1537   1.468       .  A
C1536     Br1541   1.948       .  S
C1537      C1538   1.442       .  A
C1538     Br1539   1.937       .  S
C1543      C1544   1.389       .  A
C1543      C1548   1.418       .  A
C1543     Br1550   1.955       .  S
C1544      C1545   1.397       .  A
C1545      C1546   1.418       .  A
C1545     Br1552   1.947       .  S
C1546      C1547   1.457       .  A
C1546     Br1551   1.932       .  S
C1547      C1548   1.480       .  A
C1548     Br1549   1.953       .  S
C1553      C1554   1.399       .  A
C1553      C1558   1.386       .  A
C1553     Br1560   1.926       .  S
C1554      C1555   1.412       .  A
C1555      C1556   1.430       .  A
C1555     Br1562   1.937       .  S
C1556      C1557   1.451       .  A
C1556     Br1561   1.926       .  S
C1557      C1558   1.432       .  A
C1558     Br1559   1.926       .  S
C1563      C1564   1.448       .  A
C1563      C1568   1.430       .  A
C1563     Br1570   1.924       .  S
C1564      C1565   1.427       .  A
C1565      C1566   1.384       .  A
C1565     Br1572   1.920       .  S
C1566      C1567   1.398       .  A
C1566     Br1571   1.921       .  S
C1567      C1568   1.416       .  A
C1568     Br1569   1.937       .  S
C1573      C1574   1.436       .  A
C1573      C1578   1.427       .  A
C1573     Br1580   1.927       .  S
C1574      C1575   1.434       .  A
C1575      C1576   1.412       .  A
C1575     Br1582   1.949       .  S
C1576      C1577   1.420       .  A
C1576     Br1581   1.943       .  S
C1577      C1578   1.420       .  A
C1578     Br1579   1.935       .  S
C1583      C1584   1.446       .  A
C1583      C1588   1.418       .  A
C1583     Br1590   1.917       .  S
C1584      C1585   1.451       .  A
C1585      C1586   1.412       .  A
C1585     Br1592   1.920       .  S
C1586      C1587   1.403       .  A
C1586     Br1591   1.952       .  S
C1587      C1588   1.404       .  A
C1588     Br1589   1.935       .  S
C1593      C1594   1.456       .  A
C1593      C1598   1.426       .  A
C1593     Br1600   1.937       .  S
C1594      C1595   1.454       .  A
C1595      C1596   1.405       .  A
C1595     Br1602   1.933       .  S
C1596      C1597   1.393       .  A
C1596     Br1601   1.944       .  S
C1597      C1598   1.405       .  A
C1598     Br1599   1.939       .  S
C1603      C1604   1.405       .  A
C1603      C1608   1.425       .  A
C1603     Br1610   1.938       .  S
C1604      C1605   1.393       .  A
C1605      C1606   1.400       .  A
C1605     Br1612   1.942       .  S
C1606      C1607   1.462       .  A
C1606     Br1611   1.953       .  S
C1607      C1608   1.457       .  A
C1608     Br1609   1.937       .  S
C1613      C1614   1.453       .  A
C1613      C1618   1.424       .  A
C1613     Br1620   1.935       .  S
C1614      C1615   1.472       .  A
C1615      C1616   1.418       .  A
C1615     Br1622   1.955       .  S
C1616      C1617   1.397       .  A
C1616     Br1621   1.948       .  S
C1617      C1618   1.404       .  A
C1618     Br1619   1.940       .  S
C1623      C1624   1.388       .  A
C1623      C1628   1.407       .  A
C1623     Br1630   1.949       .  S
C1624      C1625   1.406       .  A
C1625      C1626   1.429       .  A
C1625     Br1632   1.929       .  S
C1626      C1627   1.446       .  A
C1626     Br1631   1.938       .  S
C1627      C1628   1.475       .  A
C1628     Br1629   1.961       .  S
C1633      C1634   1.409       .  A
C1633      C1638   1.424       .  A
C1633     Br1640   1.929       .  S
C1634      C1635   1.396       .  A
C1635      C1636   1.388       .  A
C1635     Br1642   1.932       .  S
C1636      C1637   1.447       .  A
C1636     Br1641   1.945       .  S
C1637      C1638   1.454       .  A
C1638     Br1639   1.933       .  S
C1643      C1644   1.398       .  A
C1643      C1648   1.416       .  A
C1643     Br1650   1.946       .  S
C1644      C1645   1.404       .  A
C1645      C1646   1.420       .  A
C1645     Br1652   1.944       .  S
C1646      C1647   1.453       .  A
C1646     Br1651   1.934       .  S
C1647      C1648   1.468       .  A
C1648     Br1649   1.952       .  S
C1653      C1654   1.407       .  A
C1653      C1658   1.397       .  A
C1653     Br1660   1.937       .  S
C1654      C1655   1.412       .  A
C1655      C1656   1.426       .  A
C1655     Br1662   1.941       .  S
C1656      C1657   1.451       .  A
C1656     Br1661   1.925       .  S
C1657      C1658   1.437       .  A
C1658     Br1659   1.932       .  S
C1663      C1664   1.451       .  A
C1663      C1668   1.423       .  A
C1663     Br1670   1.946   1_565  S
C1664      C1665   1.462       .  A
C1665      C1666   1.408       .  A
C1665     Br1672   1.944   1_565  S
C1666      C1667   1.394       .  A
C1666     Br1671   1.954       .  S
C1667      C1668   1.409       .  A
C1668     Br1669   1.943       .  S
C1673      C1674   1.469       .  A
C1673      C1678   1.413       .  A
C1673     Br1680   1.951       .  S
C1674      C1675   1.452   1_545  A
C1675      C1676   1.420       .  A
C1675     Br1682   1.938       .  S
C1676      C1677   1.403   1_565  A
C1676     Br1681   1.938       .  S
C1677      C1678   1.397       .  A
C1678     Br1679   1.951       .  S
C1683      C1684   1.453       .  A
C1683      C1688   1.399       .  A
C1683     Br1690   1.929       .  S
C1684      C1685   1.454       .  A
C1685      C1686   1.419       .  A
C1685     Br1692   1.937       .  S
C1686      C1687   1.398       .  A
C1686     Br1691   1.936       .  S
C1687      C1688   1.385       .  A
C1688     Br1689   1.945       .  S
C1693      C1694   1.396       .  A
C1693      C1698   1.413       .  A
C1693     Br1700   1.948       .  S
C1694      C1695   1.407       .  A
C1695      C1696   1.431       .  A
C1695     Br1702   1.936       .  S
C1696      C1697   1.454       .  A
C1696     Br1701   1.938       .  S
C1697      C1698   1.461       .  A
C1698     Br1699   1.939       .  S
C1703      C1704   1.412       .  A
C1703      C1708   1.429       .  A
C1703     Br1710   1.934       .  S
C1704      C1705   1.401       .  A
C1705      C1706   1.388       .  A
C1705     Br1712   1.922       .  S
C1706      C1707   1.428       .  A
C1706     Br1711   1.929       .  S
C1707      C1708   1.450       .  A
C1708     Br1709   1.928       .  S
C1713      C1714   1.392       .  A
C1713      C1718   1.408       .  A
C1713     Br1720   1.959       .  S
C1714      C1715   1.403       .  A
C1715      C1716   1.426       .  A
C1715     Br1722   1.935       .  S
C1716      C1717   1.452       .  A
C1716     Br1721   1.935       .  S
C1717      C1718   1.474       .  A
C1718     Br1719   1.964       .  S
C1723      C1724   1.397       .  A
C1723      C1728   1.387       .  A
C1723     Br1730   1.934       .  S
C1724      C1725   1.407       .  A
C1725      C1726   1.419       .  A
C1725     Br1732   1.919       .  S
C1726      C1727   1.452       .  A
C1726     Br1731   1.935       .  S
C1727      C1728   1.449       .  A
C1728     Br1729   1.946       .  S
C1733      C1734   1.389       .  A
C1733      C1738   1.409       .  A
C1733     Br1740   1.949       .  S
C1734      C1735   1.405       .  A
C1735      C1736   1.427       .  A
C1735     Br1742   1.934       .  S
C1736      C1737   1.452       .  A
C1736     Br1741   1.933       .  S
C1737      C1738   1.456       .  A
C1738     Br1739   1.926       .  S
C1743      C1744   1.403       .  A
C1743      C1748   1.419       .  A
C1743     Br1750   1.938       .  S
C1744      C1745   1.397       .  A
C1745      C1746   1.416       .  A
C1745     Br1752   1.954       .  S
C1746      C1747   1.470       .  A
C1746     Br1751   1.950       .  S
C1747      C1748   1.451       .  A
C1748     Br1749   1.942       .  S
