geometry optimzed in LAMMPS
_audit_creation_date              2020-11-30 
_audit_creation_method            'lammps2cif' 
_symmetry_space_group_name_H-M    'P1' 
_symmetry_Int_Tables_number       1 
_symmetry_cell_setting            triclinic 
loop_ 
_symmetry_equiv_pos_as_xyz 
  x,y,z 
_cell_length_a                    79.76032289 
_cell_length_b                    30.229726461660054 
_cell_length_c                    26.241371357452653 
_cell_angle_alpha                 90.63233707973144 
_cell_angle_beta                  89.09327225413944 
_cell_angle_gamma                 89.70582292948849 
loop_ 
_atom_site_label 
_atom_site_type_symbol 
_atom_site_fract_x 
_atom_site_fract_y 
_atom_site_fract_z 
_atom_site_charge 
C1          C  0.71000485  0.50220283  0.97171336     0.30400
C2          C  0.71070519  0.50737878  0.07733266     0.30400
C3          C  0.71832878  0.54317651  0.99536359    -0.05800
C4          C  0.69269619  0.50064427  0.99983757    -0.06600
C5          C  0.71893227  0.46344110  0.99905287    -0.06400
C6          C  0.71843152  0.54602140  0.04813534    -0.05800
C7          C  0.69311683  0.50300486  0.05329855    -0.06600
C8          C  0.71944274  0.46646468  0.05237548    -0.06400
C9          C  0.72675465  0.58429389  0.06097975    -0.31800
N10         N  0.73222997  0.60409938  0.01756002     0.14700
C11         C  0.72716687  0.57907032  0.97726874    -0.31800
H12         H  0.73005011  0.58587554  0.93772722     0.16600
C13         C  0.67736634  0.49091242  0.07101602    -0.30800
N14         N  0.66721361  0.48355610  0.03085559     0.13400
C15         C  0.67656568  0.48766657  0.98733067    -0.30800
C16         C  0.72499549  0.42596938  0.06959050    -0.31100
N17         N  0.72795317  0.39838984  0.02915688     0.13900
H18         H  0.72645526  0.41692097  0.10915336     0.16500
C19         C  0.72365432  0.42044535  0.98620339    -0.31100
H20         H  0.72357318  0.40592516  0.94844671     0.16500
H21         H  0.67208450  0.48056821  0.94955670     0.16500
H22         H  0.72900568  0.59634388  0.09928024     0.16600
H23         H  0.67358564  0.48672697  0.11057530     0.16500
C24         C  0.71173236  0.51452947  0.47112047     0.30400
C25         C  0.71227183  0.50656311  0.57659884     0.30400
C26         C  0.71906985  0.55490150  0.50128809    -0.05800
C27         C  0.69478281  0.50863457  0.49852745    -0.06600
C28         C  0.72234337  0.47612138  0.49251520    -0.06400
C29         C  0.71870648  0.55118584  0.55466801    -0.05800
C30         C  0.69497176  0.50488563  0.55147512    -0.06600
C31         C  0.72240058  0.47186616  0.54541049    -0.06400
C32         C  0.72272862  0.59246292  0.57461281    -0.31800
N33         N  0.72685838  0.62018620  0.53598531     0.14700
C34         C  0.72496262  0.59730191  0.49132275    -0.31800
H35         H  0.72748119  0.61105062  0.45414485     0.16600
C36         C  0.67852362  0.50703337  0.56804997    -0.30800
N37         N  0.66848865  0.51086757  0.52706549     0.13400
C38         C  0.67831745  0.51280003  0.48451778    -0.30800
C39         C  0.73041771  0.43240691  0.55581091    -0.31100
N40         N  0.73522874  0.41250103  0.51106656     0.13900
H41         H  0.73183321  0.41809565  0.59309950     0.16500
C42         C  0.73073833  0.43953282  0.47250607    -0.31100
H43         H  0.73247753  0.43154350  0.43246643     0.16500
H44         H  0.67382848  0.51830684  0.44644295     0.16500
H45         H  0.72233929  0.60195229  0.61447903     0.16600
H46         H  0.67412052  0.50686719  0.60729789     0.16500
C47         C  0.80856114  0.00119276  0.07630055     0.30400
C48         C  0.80685456  0.00327681  0.97058165     0.30400
C49         C  0.79858728  0.03988512  0.05325791    -0.05800
C50         C  0.82547356  0.00626290  0.04693509    -0.06600
C51         C  0.80108904  0.96035760  0.04994634    -0.06400
C52         C  0.79757971  0.04058539  0.00019267    -0.05800
C53         C  0.82466355  0.00500034  0.99356725    -0.06600
C54         C  0.80031131  0.96094367  0.99676329    -0.06400
C55         C  0.78885916  0.07847237  0.98769249    -0.31800
N56         N  0.78455596  0.10070670  0.03138585     0.14700
C57         C  0.79070044  0.07784467  0.07134740    -0.31800
H58         H  0.78952948  0.08829499  0.11088845     0.16600
C59         C  0.84103340  0.00260189  0.97536609    -0.30800
N60         N  0.85156457  0.00642980  0.01523305     0.13400
C61         C  0.84222915  0.01014687  0.05869138    -0.30800
C62         C  0.79517095  0.91923768  0.98177686    -0.31100
N63         N  0.79228218  0.89442684  0.02390415     0.13900
H64         H  0.79360743  0.90762372  0.94302249     0.16500
C65         C  0.79622708  0.91897745  0.06560198    -0.31100
H66         H  0.79568904  0.90741786  0.10450706     0.16500
H67         H  0.84744269  0.01418063  0.09621322     0.16500
H68         H  0.78609265  0.08944079  0.94966773     0.16600
H69         H  0.84506047  0.99819152  0.93604367     0.16500
C70         C  0.80900408  0.01026978  0.57557467     0.30400
C71         C  0.81007399  0.00734407  0.46968546     0.30400
C72         C  0.80071916  0.05025368  0.54781053    -0.05800
C73         C  0.82650314  0.00765458  0.54982430    -0.06600
C74         C  0.79945374  0.97171752  0.54982036    -0.06400
C75         C  0.80139431  0.04826843  0.49433241    -0.05800
C76         C  0.82695329  0.00601766  0.49679603    -0.06600
C77         C  0.79988953  0.97011157  0.49644389    -0.06400
C78         C  0.79246674  0.08392092  0.47650711    -0.31800
N79         N  0.78673941  0.10867753  0.51647745     0.14700
C80         C  0.79109929  0.08762816  0.56011174    -0.31800
H81         H  0.78740760  0.09875589  0.59789665     0.16600
C82         C  0.84356883  0.00680209  0.48146840    -0.30800
N83         N  0.85324173  0.00927807  0.52353748     0.13400
C84         C  0.84297629  0.00988852  0.56545552    -0.30800
C85         C  0.78911250  0.93631160  0.48224645    -0.31100
N86         N  0.78279582  0.91656257  0.52479346     0.13900
H87         H  0.78602386  0.92667782  0.44366726     0.16500
C88         C  0.78872084  0.93866813  0.56605639    -0.31100
H89         H  0.78550120  0.93104057  0.60515048     0.16500
H90         H  0.84719097  0.01305865  0.60452558     0.16500
H91         H  0.79041852  0.09179177  0.43691011     0.16600
H92         H  0.84826247  0.00700991  0.44275032     0.16500
O93         O  0.53678054  0.47307928  0.01937608    -0.71400
O94         O  0.49061649  0.48166282  0.98572228    -0.71600
O95         O  0.50917779  0.50620054  0.06455169    -0.71400
O96         O  0.51854342  0.44788942  0.93966470    -0.71500
O97         O  0.51404205  0.38416772  0.97487464    -0.71400
O98         O  0.50421245  0.44304524  0.09987289    -0.71400
O99         O  0.48599558  0.41818669  0.02110722    -0.71400
O100        O  0.53237869  0.40956871  0.05499952    -0.71600
V101        V  0.51368074  0.47583345  0.00281941     1.35200
V102        V  0.50926073  0.41485835  0.03692906     1.35200
C103        C  0.54247230  0.44009453  0.04289918     0.77900
C104        C  0.48028875  0.45246926  0.99995131     0.77900
C105        C  0.50490171  0.48465336  0.10342611     0.77800
C106        C  0.51820464  0.40623157  0.93616430     0.77800
O107        O  0.53353797  0.54800918  0.54488011    -0.71400
O108        O  0.48649191  0.53498769  0.53254760    -0.71600
O109        O  0.51001936  0.50507150  0.59643598    -0.71400
O110        O  0.51005056  0.57822593  0.48078395    -0.71500
O111        O  0.51480834  0.52002350  0.43314681    -0.71400
O112        O  0.51276919  0.44658920  0.54909671    -0.71400
O113        O  0.49032611  0.47772818  0.48364390    -0.71400
O114        O  0.53732665  0.48826408  0.49919253    -0.71600
V115        V  0.51009509  0.54039431  0.53782625     1.35200
V116        V  0.51377461  0.48435798  0.49196687     1.35200
C117        C  0.54338803  0.51946944  0.52538607     0.77900
C118        C  0.48028666  0.50462651  0.50533433     0.77900
C119        C  0.51142005  0.46352978  0.59308911     0.77800
C120        C  0.51206925  0.56118196  0.43709787     0.77800
O121        O  0.98572029  0.03374017  0.99361094    -0.71400
O122        O  0.03360967  0.03412740  0.98877972    -0.71600
O123        O  0.00920738  0.00761718  0.92605309    -0.71400
O124        O  0.00979928  0.06082840  0.05595964    -0.71500
O125        O  0.00902446  0.99667553  0.09065839    -0.71400
O126        O  0.01152577  0.94274188  0.95908202    -0.71400
O127        O  0.03393773  0.97074664  0.02699332    -0.71400
O128        O  0.98627611  0.96733270  0.02420608    -0.71600
V129        V  0.00962082  0.03280393  0.99172898     1.35200
V130        V  0.01012469  0.97051397  0.02462998     1.35200
C131        C  0.97784648  0.00021457  0.00946573     0.77900
C132        C  0.04189982  0.00257454  0.00765453     0.77900
C133        C  0.01097601  0.96651461  0.91971065     0.77800
C134        C  0.00911366  0.03831710  0.09589477     0.77800
O135        O  0.03684135  0.03030216  0.52767378    -0.71400
O136        O  0.98915337  0.04299775  0.53437981    -0.71600
O137        O  0.01181214  0.99105702  0.58007612    -0.71400
O138        O  0.01429290  0.08274215  0.48409063    -0.71500
O139        O  0.01128819  0.03384191  0.42353494    -0.71400
O140        O  0.01019431  0.94122781  0.51992803    -0.71400
O141        O  0.98696851  0.99230114  0.47611125    -0.71400
O142        O  0.03438824  0.98228908  0.46651185    -0.71600
V143        V  0.01296952  0.03562878  0.53060670     1.35200
V144        V  0.01073657  0.98844726  0.47256622     1.35200
C145        C  0.04381219  0.00471805  0.49499132     0.77900
C146        C  0.97984006  0.01973174  0.50612746     0.77900
C147        C  0.01075497  0.95095271  0.56674846     0.77800
C148        C  0.01321733  0.07369119  0.43744722     0.77800
C149        C  0.31278706  0.50595554  0.91158450     0.30400
C150        C  0.31133872  0.49917462  0.01702413     0.30400
C151        C  0.30332837  0.46509331  0.93334615    -0.05800
C152        C  0.32965891  0.50451166  0.93942727    -0.06600
C153        C  0.30313296  0.54370672  0.94098544    -0.06400
C154        C  0.30259512  0.46176449  0.98656270    -0.05800
C155        C  0.32875924  0.50052346  0.99201612    -0.06600
C156        C  0.30233006  0.53991526  0.99418129    -0.06400
C157        C  0.29244848  0.42597358  0.99745161    -0.31800
N158        N  0.28770375  0.40588910  0.95336630     0.14700
C159        C  0.29382079  0.43051597  0.91403728    -0.31800
H160        H  0.29156010  0.42375433  0.87412656     0.16600
C161        C  0.34487535  0.49722940  0.00958805    -0.30800
N162        N  0.35563445  0.49975658  0.96941348     0.13400
C163        C  0.34657294  0.50437922  0.92623214    -0.30800
C164        C  0.29114236  0.57198296  0.01220062    -0.31100
N165        N  0.28582595  0.59706799  0.97257142     0.13900
H166        H  0.28698681  0.57590614  0.05113936     0.16500
C167        C  0.29257231  0.57861986  0.92925064    -0.31100
H168        H  0.28978828  0.58980968  0.89111524     0.16500
H169        H  0.35186182  0.50627162  0.88824766     0.16500
H170        H  0.28888713  0.41483691  0.03505463     0.16600
H171        H  0.34856163  0.49257143  0.04886350     0.16500
C172        C  0.31193785  0.49520107  0.41112903     0.30400
C173        C  0.31166129  0.49812745  0.51717919     0.30400
C174        C  0.30424125  0.45532826  0.43851533    -0.05800
C175        C  0.32920883  0.49872576  0.43696416    -0.06600
C176        C  0.30283592  0.53511128  0.43707370    -0.06400
C177        C  0.30414524  0.45632082  0.49184387    -0.05800
C178        C  0.32902364  0.49799261  0.49039607    -0.06600
C179        C  0.30270179  0.53614297  0.49032890    -0.06400
C180        C  0.29899496  0.41486529  0.50730216    -0.31800
N181        N  0.29552310  0.38978237  0.46545221     0.14700
C182        C  0.29909658  0.41395088  0.42339209    -0.31800
H183        H  0.29818826  0.40202733  0.38448317     0.16600
C184        C  0.34542561  0.49524122  0.50535178    -0.30800
N185        N  0.35549278  0.49808394  0.46358727     0.13400
C186        C  0.34582499  0.50122015  0.42175082    -0.30800
C187        C  0.29601167  0.57620869  0.50586646    -0.31100
N188        N  0.29169995  0.59947930  0.46408834     0.13900
H189        H  0.29480214  0.58814286  0.54494025     0.16500
C190        C  0.29617240  0.57514514  0.42202376    -0.31100
H191        H  0.29484699  0.58609175  0.38330333     0.16500
H192        H  0.35064113  0.50400371  0.38327310     0.16500
H193        H  0.29785001  0.40365673  0.54620267     0.16600
H194        H  0.34985723  0.49169072  0.54398729     0.16500
C195        C  0.21255769  0.00431070  0.01998736     0.30400
C196        C  0.21050833  0.00132445  0.91439794     0.30400
C197        C  0.22116135  0.96396408  0.99256916    -0.05800
C198        C  0.19495701  0.00412019  0.99756348    -0.06600
C199        C  0.22117736  0.04289517  0.99106307    -0.06400
C200        C  0.22015634  0.96263681  0.93928643    -0.05800
C201        C  0.19379083  0.00235724  0.94475327    -0.06600
C202        C  0.22014786  0.04158528  0.93770088    -0.06400
C203        C  0.22859336  0.92471059  0.92277593    -0.31800
N204        N  0.23403204  0.90219738  0.96387779     0.14700
C205        C  0.23015112  0.92656224  0.00634020    -0.31800
H206        H  0.23326710  0.91688005  0.04457839     0.16600
C207        C  0.17684693  0.00199747  0.93394889    -0.30800
N208        N  0.16793492  0.00357171  0.97864618     0.13400
C209        C  0.17889709  0.00504640  0.01758128    -0.30800
C210        C  0.22897472  0.07817303  0.92009172    -0.31100
N211        N  0.23473757  0.10219818  0.96041633     0.13900
H212        H  0.23094537  0.08714545  0.88062171     0.16500
C213        C  0.23050750  0.08000163  0.00357854    -0.31100
H214        H  0.23368697  0.09072579  0.04160074     0.16500
H215        H  0.17540629  0.00642155  0.05750443     0.16500
H216        H  0.23023070  0.91336513  0.88374304     0.16600
H217        H  0.17138742  0.00051860  0.89637605     0.16500
C218        C  0.21350932  0.99858744  0.51989058     0.30400
C219        C  0.21404052  0.99895317  0.41394020     0.30400
C220        C  0.22068868  0.95653331  0.49273148    -0.05800
C221        C  0.19629647  0.00175855  0.49350779    -0.06600
C222        C  0.22351358  0.03598628  0.49409607    -0.06400
C223        C  0.22114847  0.95745732  0.43946515    -0.05800
C224        C  0.19660581  0.00432764  0.44026152    -0.06600
C225        C  0.22357382  0.03677776  0.44082517    -0.06400
C226        C  0.22835099  0.91847095  0.42230126    -0.31800
N227        N  0.23196249  0.89296319  0.46298039     0.14700
C228        C  0.22707528  0.91559458  0.50610409    -0.31800
H229        H  0.22838802  0.90347001  0.54439799     0.16600
C230        C  0.18014822  0.00959529  0.42535550    -0.30800
N231        N  0.16996707  0.00558825  0.46682807     0.13400
C232        C  0.17960847  0.99964385  0.50824834    -0.30800
C233        C  0.23177652  0.07505132  0.42671250    -0.31100
N234        N  0.23733210  0.09611080  0.46927914     0.13900
H235        H  0.23342751  0.08710470  0.38828942     0.16500
C236        C  0.23228675  0.07252129  0.51054330    -0.31100
H237        H  0.23460547  0.08167256  0.54978456     0.16500
H238        H  0.17471820  0.99367694  0.54612997     0.16500
H239        H  0.23111267  0.90972100  0.38285349     0.16600
H240        H  0.17573717  0.01410282  0.38688576     0.16500
C241        C  0.20851354  0.99901885  0.85525358     0.01700
C242        C  0.20789178  0.03803441  0.82633557     0.04600
C243        C  0.21086903  0.03695106  0.77334428    -0.11500
C244        C  0.21033977  0.99651651  0.74615728     0.23900
C245        C  0.20676185  0.95767411  0.77370816    -0.12100
C246        C  0.20533644  0.95903904  0.82785329     0.05300
C247        C  0.21131998  0.99633260  0.68868433     0.27700
C248        C  0.19821898  0.01505295  0.66046418    -0.12800
C249        C  0.20026689  0.02222276  0.60771790     0.05800
C250        C  0.21344472  0.00102602  0.57954809    -0.08700
C251        C  0.22745634  0.98755240  0.60851529     0.06600
C252        C  0.22625258  0.98422021  0.66243222    -0.13100
Br253      Br  0.20318529  0.90309204  0.73691004    -0.05200
Br254      Br  0.19515220  0.08727890  0.85288118     0.00500
Br255      Br  0.18970971  0.07489374  0.58167448     0.00900
Br256      Br  0.24535582  0.96533214  0.70092732    -0.03500
Br257      Br  0.19517345  0.90927560  0.86181317     0.01000
Br258      Br  0.21510871  0.09171099  0.73846735    -0.02800
Br259      Br  0.17756581  0.03307132  0.69412892    -0.03600
Br260      Br  0.24936356  0.98491684  0.57720481     0.00300
C261        C  0.21213143  0.00507980  0.07958149     0.01700
C262        C  0.21103111  0.96508351  0.10726027     0.04600
C263        C  0.21379259  0.96437955  0.16003400    -0.11500
C264        C  0.21350044  0.00397414  0.18868518     0.23900
C265        C  0.21076631  0.04407224  0.16298374    -0.12100
C266        C  0.20952834  0.04460900  0.10898486     0.05300
C267        C  0.21386958  0.00230041  0.24593298     0.27700
C268        C  0.20012760  0.98494004  0.27358983    -0.12800
C269        C  0.20129219  0.97772273  0.32643363     0.05800
C270        C  0.21462640  0.99640032  0.35455378    -0.08700
C271        C  0.22935121  0.00654855  0.32587654     0.06600
C272        C  0.22875587  0.01134472  0.27226062    -0.13100
Br273      Br  0.20788736  0.09788368  0.20240206    -0.05200
Br274      Br  0.19884229  0.91562592  0.08020217     0.00500
Br275      Br  0.18827265  0.92958504  0.35423573     0.00900
Br276      Br  0.24858485  0.02808445  0.23427858    -0.03500
Br277      Br  0.19993035  0.09677483  0.07879279     0.01000
Br278      Br  0.21710463  0.90829743  0.19312166    -0.02800
Br279      Br  0.17974682  0.96939029  0.23910362    -0.03600
Br280      Br  0.25104581  0.00132570  0.35644307     0.00300
C281        C  0.28810205  0.34628464  0.46543360     0.01700
C282        C  0.27315399  0.33855538  0.43855748     0.04600
C283        C  0.26588703  0.29626847  0.43801043    -0.11500
C284        C  0.27273096  0.26206777  0.46729699     0.23900
C285        C  0.28753159  0.26966002  0.49473704    -0.12100
C286        C  0.29545000  0.31126965  0.49269136     0.05300
C287        C  0.26407211  0.21856139  0.46973415     0.27700
C288        C  0.24929226  0.21405656  0.49939882    -0.12800
C289        C  0.24031308  0.17400924  0.49860717     0.05800
C290        C  0.24654513  0.13721560  0.47038563    -0.08700
C291        C  0.26179290  0.14137300  0.44264906     0.06600
C292        C  0.27016215  0.18225820  0.44080147    -0.13100
Br293      Br  0.29679204  0.22307990  0.53558105    -0.05200
Br294      Br  0.26171498  0.38652266  0.40556970     0.00500
Br295      Br  0.21894028  0.17082548  0.53365162     0.00900
Br296      Br  0.28970310  0.18911790  0.39725774    -0.03500
Br297      Br  0.31672635  0.31948288  0.52528108     0.01000
Br298      Br  0.24649940  0.28492872  0.39679161    -0.02800
Br299      Br  0.24123803  0.26327899  0.54056443    -0.03600
Br300      Br  0.27197960  0.09064685  0.40982106     0.00300
C301        C  0.28354195  0.64231827  0.46407960     0.01700
C302        C  0.26843894  0.64952455  0.49214640     0.04600
C303        C  0.26009698  0.69065476  0.49001442    -0.11500
C304        C  0.26650638  0.72457752  0.45908539     0.23900
C305        C  0.28160297  0.71773771  0.43145583    -0.12100
C306        C  0.29028210  0.67716727  0.43481155     0.05300
C307        C  0.25785676  0.76831857  0.45816726     0.27700
C308        C  0.24409644  0.77541995  0.42618860    -0.12800
C309        C  0.23515652  0.81589408  0.42871265     0.05800
C310        C  0.24071509  0.85079378  0.46068940    -0.08700
C311        C  0.25542793  0.84437813  0.48906617     0.06600
C312        C  0.26341057  0.80284669  0.48983366    -0.13100
Br313      Br  0.29036489  0.76430444  0.38913084    -0.05200
Br314      Br  0.25863600  0.60296906  0.53236946     0.00500
Br315      Br  0.21509342  0.82236079  0.38939988     0.00900
Br316      Br  0.28213269  0.79316140  0.53423947    -0.03500
Br317      Br  0.31204710  0.67078039  0.40240727     0.01000
Br318      Br  0.23985660  0.70100666  0.52982172    -0.02800
Br319      Br  0.23787194  0.72978260  0.37821903    -0.03600
Br320      Br  0.26616462  0.89337653  0.52174716     0.00300
C321        C  0.24258532  0.14569064  0.95846797     0.01700
C322        C  0.25786313  0.15404579  0.98353860     0.04600
C323        C  0.26472380  0.19723266  0.98472150    -0.11500
C324        C  0.25713237  0.23192558  0.95758985     0.23900
C325        C  0.24240316  0.22323268  0.93058332    -0.12100
C326        C  0.23474456  0.18133524  0.93326775     0.05300
C327        C  0.26477475  0.27721527  0.95586290     0.27700
C328        C  0.25769230  0.31283256  0.98422410    -0.12800
C329        C  0.26448582  0.35586707  0.98034837     0.05800
C330        C  0.27910902  0.36349419  0.95044512    -0.08700
C331        C  0.28598897  0.32758008  0.92161252     0.06600
C332        C  0.27861387  0.28523012  0.92339623    -0.13100
Br333      Br  0.23282773  0.26903906  0.88903823    -0.05200
Br334      Br  0.26989517  0.10603764  0.01419822     0.00500
Br335      Br  0.25305711  0.40488024  0.01359620     0.00900
Br336      Br  0.28738875  0.23768546  0.88078456    -0.03500
Br337      Br  0.21258251  0.17558974  0.90722265     0.01000
Br338      Br  0.28446732  0.20924397  0.02392409    -0.02800
Br339      Br  0.23871935  0.30237392  0.02890238    -0.03600
Br340      Br  0.30611719  0.33420450  0.88154450     0.00300
C341        C  0.27604357  0.63820578  0.97505729     0.01700
C342        C  0.26382531  0.64744525  0.93768887     0.04600
C343        C  0.25693101  0.69047833  0.93330399    -0.11500
C344        C  0.26082962  0.72389477  0.96900347     0.23900
C345        C  0.27148979  0.71374008  0.00943367    -0.12100
C346        C  0.27949042  0.67198778  0.01168456     0.05300
C347        C  0.25360667  0.76964330  0.96495409     0.27700
C348        C  0.26343255  0.80463918  0.94557311    -0.12800
C349        C  0.25703904  0.84839633  0.94556332     0.05800
C350        C  0.24058553  0.85738929  0.96314741    -0.08700
C351        C  0.23047550  0.82192188  0.97963926     0.06600
C352        C  0.23713197  0.77868527  0.98245965    -0.13100
Br353      Br  0.27516443  0.75798233  0.06184007    -0.05200
Br354      Br  0.25523865  0.60068937  0.89492664     0.00500
Br355      Br  0.27076917  0.89647271  0.92225112     0.00900
Br356      Br  0.22386836  0.73196592  0.01191122    -0.03500
Br357      Br  0.29579397  0.66428280  0.06404496     0.01000
Br358      Br  0.24240527  0.70427212  0.87748888    -0.02800
Br359      Br  0.28571145  0.79246603  0.91938092    -0.03600
Br360      Br  0.20708886  0.83173281  0.99434464     0.00300
C361        C  0.31470487  0.50708536  0.85216996     0.01700
C362        C  0.32000856  0.46887085  0.82380591     0.04600
C363        C  0.31896201  0.46741023  0.76991679    -0.11500
C364        C  0.31322398  0.50447758  0.74306580     0.23900
C365        C  0.31001323  0.54405183  0.77056407    -0.12100
C366        C  0.31258645  0.54630146  0.82368577     0.05300
C367        C  0.31248348  0.50361018  0.68571678     0.27700
C368        C  0.32494714  0.52483005  0.65637956    -0.12800
C369        C  0.32344199  0.52800290  0.60299103     0.05800
C370        C  0.31124894  0.50264648  0.57655792    -0.08700
C371        C  0.29751535  0.48708615  0.60663653     0.06600
C372        C  0.29847083  0.48606063  0.66057083    -0.13100
Br373      Br  0.30254124  0.59604989  0.73533796    -0.05200
Br374      Br  0.33160742  0.42122688  0.85655779     0.00500
Br375      Br  0.33479745  0.57697287  0.57064067     0.00900
Br376      Br  0.28024863  0.46212693  0.70063541    -0.03500
Br377      Br  0.32077295  0.60190204  0.84995846     0.01000
Br378      Br  0.32583141  0.41495482  0.73233779    -0.02800
Br379      Br  0.34409887  0.55051814  0.68947311    -0.03600
Br380      Br  0.27585667  0.47740385  0.57663087     0.00300
C381        C  0.31266814  0.49698234  0.07622036     0.01700
C382        C  0.31738041  0.53504693  0.10529472     0.04600
C383        C  0.31771199  0.53385784  0.15926341    -0.11500
C384        C  0.31409329  0.49444224  0.18522618     0.23900
C385        C  0.31206978  0.45528796  0.15634419    -0.12100
C386        C  0.31312121  0.45608681  0.10255893     0.05300
C387        C  0.31337810  0.49355285  0.24258323     0.27700
C388        C  0.32646630  0.47443792  0.27049984    -0.12800
C389        C  0.32479537  0.46917495  0.32376437     0.05800
C390        C  0.31171291  0.49117819  0.35169682    -0.08700
C391        C  0.29757543  0.50441311  0.32290415     0.06600
C392        C  0.29868652  0.50708210  0.26903730    -0.13100
Br393      Br  0.30848859  0.39977994  0.19038370    -0.05200
Br394      Br  0.32705928  0.58605289  0.07254336     0.00500
Br395      Br  0.33701278  0.42056546  0.35329926     0.00900
Br396      Br  0.27979538  0.52776242  0.23067288    -0.03500
Br397      Br  0.32160349  0.40290675  0.06941492     0.01000
Br398      Br  0.32410433  0.58555409  0.19805345    -0.02800
Br399      Br  0.34674190  0.45477862  0.23590260    -0.03600
Br400      Br  0.27551910  0.50835590  0.35415558     0.00300
C401        C  0.06251277  0.00157217  0.48949643     0.01700
C402        C  0.07287152  0.00677422  0.53264594     0.04600
C403        C  0.09048145  0.00507904  0.52708799    -0.11500
C404        C  0.09800961  0.99986694  0.47853102     0.23900
C405        C  0.08790893  0.99380647  0.43563650    -0.12100
C406        C  0.07027242  0.99385524  0.44090195     0.05300
C407        C  0.11660901  0.00095267  0.47269125     0.27700
C408        C  0.12481928  0.04122561  0.46251573    -0.12800
C409        C  0.14247026  0.04261020  0.45949233     0.05800
C410        C  0.15195581  0.00385577  0.46672013    -0.08700
C411        C  0.14374758  0.96343356  0.47529434     0.06600
C412        C  0.12611901  0.96190090  0.47810587    -0.13100
Br413      Br  0.09849965  0.98550226  0.36944234    -0.05200
Br414      Br  0.06336033  0.01463634  0.60039898     0.00500
Br415      Br  0.15382690  0.09762042  0.44720268     0.00900
Br416      Br  0.11492794  0.90639137  0.48926172    -0.03500
Br417      Br  0.05726901  0.98460946  0.38006724     0.01000
Br418      Br  0.10451603  0.00904922  0.58625613    -0.02800
Br419      Br  0.11182147  0.09440097  0.45306739    -0.03600
Br420      Br  0.15683333  0.91015743  0.48216689     0.00300
C421        C  0.14992882  0.00327978  0.98471111     0.01700
C422        C  0.14034340  0.04033592  0.97065770     0.04600
C423        C  0.12277870  0.04053603  0.97800224    -0.11500
C424        C  0.11466526  0.00353510  0.99925926     0.23900
C425        C  0.12429297  0.96678116  0.01423392    -0.12100
C426        C  0.14185724  0.96673360  0.00709572     0.05300
C427        C  0.09597277  0.00221010  0.00272843     0.27700
C428        C  0.08728648  0.01909192  0.04608286    -0.12800
C429        C  0.06957643  0.01845948  0.04821098     0.05800
C430        C  0.06047973  0.00223001  0.00637251    -0.08700
C431        C  0.06918567  0.98426682  0.96374637     0.06600
C432        C  0.08684825  0.98408669  0.96201121    -0.13100
Br433      Br  0.11331794  0.91632838  0.04396288    -0.05200
Br434      Br  0.15146980  0.09128107  0.94292726     0.00500
Br435      Br  0.05771332  0.03873774  0.10879016     0.00900
Br436      Br  0.09865723  0.95872145  0.90386708    -0.03500
Br437      Br  0.15490412  0.91602039  0.02643180     0.01000
Br438      Br  0.10973033  0.09146072  0.95904520    -0.02800
Br439      Br  0.09970410  0.04318380  0.10226787    -0.03600
Br440      Br  0.05691552  0.95864033  0.90822269     0.00300
C441        C  0.01273175  0.94795365  0.86713647     0.01700
C442        C  0.00789800  0.90391568  0.85535632     0.04600
C443        C  0.00899683  0.88806833  0.80469383    -0.11500
C444        C  0.01395678  0.91654138  0.76536142     0.23900
C445        C  0.01915516  0.95989659  0.77683994    -0.12100
C446        C  0.01906753  0.97519136  0.82744093     0.05300
C447        C  0.01213183  0.90359690  0.71122333     0.27700
C448        C  0.02655605  0.89727309  0.68015660    -0.12800
C449        C  0.02555251  0.90427687  0.62744224     0.05800
C450        C  0.01024001  0.91764239  0.60664744    -0.08700
C451        C  0.99540195  0.91488763  0.63586106     0.06600
C452        C  0.99631463  0.90862626  0.68861766    -0.13100
Br453      Br  0.02572666  0.99954692  0.72255111    -0.05200
Br454      Br  0.99850447  0.86550599  0.90661520     0.00500
Br455      Br  0.04540524  0.90232447  0.58466517     0.00900
Br456      Br  0.97627924  0.91454556  0.73038633    -0.03500
Br457      Br  0.02825375  0.03355773  0.84034637     0.01000
Br458      Br  0.00326585  0.82769569  0.78822418    -0.02800
Br459      Br  0.04800111  0.88695592  0.71089000    -0.03600
Br460      Br  0.97418974  0.92642743  0.60425747     0.00300
C461        C  0.01437152  0.10792062  0.39898265     0.01700
C462        C  0.02942959  0.11026979  0.37087467     0.04600
C463        C  0.02878331  0.11490754  0.31794502    -0.11500
C464        C  0.01307707  0.12033453  0.29503247     0.23900
C465        C  0.99877219  0.13011353  0.32523973    -0.12100
C466        C  0.99938946  0.12317354  0.37788923     0.05300
C467        C  0.01073421  0.10104675  0.24405518     0.27700
C468        C  0.01194150  0.12709146  0.20056834    -0.12800
C469        C  0.01070871  0.10731707  0.15204325     0.05800
C470        C  0.00872104  0.06039731  0.14707758    -0.08700
C471        C  0.00671712  0.03489505  0.19200851     0.06600
C472        C  0.00772741  0.05536325  0.23998353    -0.13100
Br473      Br  0.97785084  0.14421302  0.29341312    -0.05200
Br474      Br  0.05039878  0.10041325  0.40431986     0.00500
Br475      Br  0.01169685  0.14681748  0.09442427     0.00900
Br476      Br  0.00527870  0.02030176  0.30102573    -0.03500
Br477      Br  0.97938193  0.12702003  0.41977672     0.01000
Br478      Br  0.04860199  0.10442727  0.27642394    -0.02800
Br479      Br  0.01556020  0.18998325  0.20847397    -0.03600
Br480      Br  0.00231348  0.97183861  0.19093040     0.00300
C481        C  0.46178852  0.50165418  0.49795818     0.01700
C482        C  0.45521748  0.48352796  0.45214109     0.04600
C483        C  0.43779311  0.48324683  0.44438363    -0.11500
C484        C  0.42678670  0.50040524  0.48197293     0.23900
C485        C  0.43307120  0.51816801  0.52744269    -0.12100
C486        C  0.45045125  0.51882951  0.53568063     0.05300
C487        C  0.40846706  0.49890419  0.47426870     0.27700
C488        C  0.40010498  0.53539595  0.45323059    -0.12800
C489        C  0.38257269  0.53482176  0.44871129     0.05800
C490        C  0.37345211  0.49741934  0.46427050    -0.08700
C491        C  0.38191067  0.46032818  0.48359407     0.06600
C492        C  0.39937866  0.46128284  0.48921802    -0.13100
Br493      Br  0.41759970  0.54158928  0.57853779    -0.05200
Br494      Br  0.46955823  0.46051804  0.39780159     0.00500
Br495      Br  0.37090858  0.58622765  0.42435346     0.00900
Br496      Br  0.41088687  0.41159772  0.51852578    -0.03500
Br497      Br  0.45809574  0.54201742  0.60021122     0.01000
Br498      Br  0.42873129  0.46007133  0.38167381    -0.02800
Br499      Br  0.41270321  0.58642416  0.43185871    -0.03600
Br500      Br  0.36952493  0.40792681  0.50131593     0.00300
C501        C  0.37353773  0.49492520  0.97269375     0.01700
C502        C  0.38110145  0.45342700  0.96342690     0.04600
C503        C  0.39853830  0.44800488  0.96867422    -0.11500
C504        C  0.40853339  0.48406777  0.98381178     0.23900
C505        C  0.40084096  0.52532759  0.99492574    -0.12100
C506        C  0.38337058  0.53062224  0.98942021     0.05300
C507        C  0.42704822  0.47799572  0.98831933     0.27700
C508        C  0.43407829  0.46787375  0.03573703    -0.12800
C509        C  0.45143674  0.45949625  0.03937875     0.05800
C510        C  0.46189203  0.45984866  0.99527179    -0.08700
C511        C  0.45480088  0.46998859  0.94780833     0.06600
C512        C  0.43751158  0.47972711  0.94454366    -0.13100
Br513      Br  0.41417858  0.57420600  0.01850472    -0.05200
Br514      Br  0.36726183  0.40360448  0.94647081     0.00500
Br515      Br  0.46089074  0.44983675  0.10562013     0.00900
Br516      Br  0.42801384  0.49564692  0.88008796    -0.03500
Br517      Br  0.37261313  0.58632071  0.00553693     0.01000
Br518      Br  0.40874467  0.39080789  0.95653199    -0.02800
Br519      Br  0.41979836  0.46528381  0.09571998    -0.03600
Br520      Br  0.46855330  0.46813414  0.88672555     0.00300
C521        C  0.51256223  0.43675479  0.64013860     0.01700
C522        C  0.50835015  0.45710385  0.68759714     0.04600
C523        C  0.51346071  0.43787756  0.73291580    -0.11500
C524        C  0.52097878  0.39566317  0.73217697     0.23900
C525        C  0.52385868  0.37308618  0.68590157    -0.12100
C526        C  0.51970999  0.39340276  0.63964088     0.05300
C527        C  0.52427681  0.37490756  0.78150817     0.27700
C528        C  0.51046800  0.35709859  0.80805880    -0.12800
C529        C  0.50932041  0.36212138  0.86122023     0.05800
C530        C  0.52208547  0.38488946  0.88697338    -0.08700
C531        C  0.53716379  0.39552281  0.86104587     0.06600
C532        C  0.53845589  0.38881834  0.80818658    -0.13100
Br533      Br  0.53397530  0.31495577  0.68665787    -0.05200
Br534      Br  0.49434751  0.50966604  0.69290388     0.00500
Br535      Br  0.48888776  0.34594409  0.89653504     0.00900
Br536      Br  0.55830143  0.40640658  0.77085049    -0.03500
Br537      Br  0.52383257  0.36024236  0.57719741     0.01000
Br538      Br  0.51047829  0.47054076  0.79644809    -0.02800
Br539      Br  0.49180384  0.33415521  0.77029914    -0.03600
Br540      Br  0.55496337  0.42576975  0.89579264     0.00300
C541        C  0.50130004  0.50784097  0.15193348     0.01700
C542        C  0.50606785  0.48863207  0.19838060     0.04600
C543        C  0.50482489  0.51355515  0.24344923    -0.11500
C544        C  0.49988670  0.55840224  0.24189574     0.23900
C545        C  0.49413084  0.57679989  0.19658087    -0.12100
C546        C  0.49420390  0.55092590  0.15186282     0.05300
C547        C  0.50202052  0.58561282  0.28800745     0.27700
C548        C  0.48877404  0.58850622  0.32381490    -0.12800
C549        C  0.49248540  0.59169327  0.37572747     0.05800
C550        C  0.50923788  0.58668990  0.39097937    -0.08700
C551        C  0.52234217  0.59140359  0.35498795     0.06600
C552        C  0.51855073  0.59391238  0.30317049    -0.13100
Br553      Br  0.48680615  0.63768831  0.19568541    -0.05200
Br554      Br  0.51567723  0.42974552  0.20141033     0.00500
Br555      Br  0.47458166  0.59493693  0.42575005     0.00900
Br556      Br  0.53618560  0.59816070  0.25228407    -0.03500
Br557      Br  0.48390770  0.57430219  0.09157857     0.01000
Br558      Br  0.51060728  0.48645651  0.30739414    -0.02800
Br559      Br  0.46599865  0.57910520  0.30278785    -0.03600
Br560      Br  0.54530574  0.58623930  0.37508666     0.00300
C561        C  0.87127468  0.01325316  0.52298885     0.01700
C562        C  0.87894453  0.05187165  0.50425715     0.04600
C563        C  0.89657160  0.05497121  0.50116348    -0.11500
C564        C  0.90669617  0.01953309  0.51719630     0.23900
C565        C  0.89903520  0.98125006  0.53700194    -0.12100
C566        C  0.88138945  0.97808256  0.53964531     0.05300
C567        C  0.92537627  0.02249596  0.51346625     0.27700
C568        C  0.93382158  0.01170374  0.46746311    -0.12800
C569        C  0.95149116  0.01340765  0.46421196     0.05800
C570        C  0.96105571  0.02363506  0.50806997    -0.08700
C571        C  0.95238267  0.03594014  0.55383847     0.06600
C572        C  0.93467213  0.03595631  0.55601232    -0.13100
Br573      Br  0.91280239  0.93313355  0.56029889    -0.05200
Br574      Br  0.86520741  0.10115176  0.48466616     0.00500
Br575      Br  0.96213318  0.00448112  0.39807228     0.00900
Br576      Br  0.92289454  0.05428371  0.61759513    -0.03500
Br577      Br  0.87093045  0.92505303  0.56436366     0.01000
Br578      Br  0.90693719  0.10789877  0.47539790    -0.02800
Br579      Br  0.92100627  0.99407542  0.40884413    -0.03600
Br580      Br  0.96426779  0.05129245  0.61510381     0.00300
C581        C  0.80941085  0.00895457  0.63513614     0.01700
C582        C  0.81270088  0.96904628  0.66195981     0.04600
C583        C  0.81085801  0.96745356  0.71591117    -0.11500
C584        C  0.80623781  0.00568890  0.74429173     0.23900
C585        C  0.80449345  0.04584133  0.71797181    -0.12100
C586        C  0.80814160  0.04789444  0.66530958     0.05300
C587        C  0.80581453  0.00557638  0.80189993     0.27700
C588        C  0.79200959  0.98849645  0.82958808    -0.12800
C589        C  0.79161585  0.99014957  0.88380672     0.05800
C590        C  0.80554650  0.00684561  0.91137447    -0.08700
C591        C  0.81733672  0.03187788  0.88273532     0.06600
C592        C  0.81852387  0.02721083  0.82925797    -0.13100
Br593      Br  0.79787698  0.09921890  0.75410976    -0.05200
Br594      Br  0.82258836  0.91827515  0.62724137     0.00500
Br595      Br  0.77047530  0.97889690  0.91813415     0.00900
Br596      Br  0.83777003  0.05105778  0.79367267    -0.03500
Br597      Br  0.81957987  0.10008575  0.64295303     0.01000
Br598      Br  0.81518304  0.91313037  0.75144760    -0.02800
Br599      Br  0.77334766  0.96425372  0.79285182    -0.03600
Br600      Br  0.82823058  0.08268580  0.91273265     0.00300
C601        C  0.81180667  0.00648798  0.41035631     0.01700
C602        C  0.81527137  0.04523928  0.38150500     0.04600
C603        C  0.81398119  0.04450751  0.32766847    -0.11500
C604        C  0.81075876  0.00458546  0.30150591     0.23900
C605        C  0.81034451  0.96506379  0.32938855    -0.12100
C606        C  0.81235167  0.96595584  0.38269897     0.05300
C607        C  0.80992279  0.00306042  0.24437595     0.27700
C608        C  0.79451170  0.00835131  0.21959833    -0.12800
C609        C  0.79372323  0.00550354  0.16568236     0.05800
C610        C  0.80856120  0.99800020  0.13563710    -0.08700
C611        C  0.82272056  0.98231122  0.16228794     0.06600
C612        C  0.82408400  0.99001416  0.21512732    -0.13100
Br613      Br  0.80767714  0.90917352  0.29427428    -0.05200
Br614      Br  0.82554506  0.09648611  0.41248035     0.00500
Br615      Br  0.77180499  0.00387702  0.13535464     0.00900
Br616      Br  0.84524806  0.97997616  0.24775405    -0.03500
Br617      Br  0.82174252  0.91405067  0.41318609     0.01000
Br618      Br  0.81732749  0.09781659  0.28913311    -0.02800
Br619      Br  0.77438211  0.01723021  0.26027036    -0.03600
Br620      Br  0.83616130  0.93427505  0.13423131     0.00300
C621        C  0.86961666  0.00440055  0.01284652     0.01700
C622        C  0.87790257  0.96503336  0.99729651     0.04600
C623        C  0.89556330  0.96242613  0.99778739    -0.11500
C624        C  0.90503786  0.99938078  0.01307986     0.23900
C625        C  0.89674801  0.03874809  0.02843025    -0.12100
C626        C  0.87910756  0.04117382  0.02842649     0.05300
C627        C  0.92371829  0.99752738  0.01177743     0.27700
C628        C  0.93263934  0.98746422  0.05613987    -0.12800
C629        C  0.95031055  0.98928992  0.05579508     0.05800
C630        C  0.95922114  0.99931306  0.01039867    -0.08700
C631        C  0.95024448  0.00808381  0.96564366     0.06600
C632        C  0.93256964  0.00762852  0.96651487    -0.13100
Br633      Br  0.90964688  0.08942617  0.04927747    -0.05200
Br634      Br  0.86500442  0.91422699  0.97707241     0.00500
Br635      Br  0.96214023  0.98119285  0.11855461     0.00900
Br636      Br  0.92035093  0.02074788  0.90560508    -0.03500
Br637      Br  0.86781862  0.09536227  0.04810115     0.01000
Br638      Br  0.90686524  0.90810382  0.97841877    -0.02800
Br639      Br  0.92053807  0.97086217  0.11720286    -0.03600
Br640      Br  0.96212354  0.01898270  0.90240178     0.00300
C641        C  0.77880860  0.15178722  0.51218181     0.01700
C642        C  0.76461557  0.15758375  0.48117747     0.04600
C643        C  0.75781989  0.20027173  0.47368881    -0.11500
C644        C  0.76424045  0.23709277  0.50035041     0.23900
C645        C  0.77826716  0.23137721  0.53157303    -0.12100
C646        C  0.78598594  0.18953323  0.53532314     0.05300
C647        C  0.75584332  0.28137624  0.49814858     0.27700
C648        C  0.76321037  0.31640363  0.47076170    -0.12800
C649        C  0.75665158  0.35980180  0.47566729     0.05800
C650        C  0.74191053  0.36798599  0.50501826    -0.08700
C651        C  0.73362574  0.33177930  0.52780363     0.06600
C652        C  0.74097292  0.28928688  0.52651908    -0.13100
Br653      Br  0.78681372  0.28108304  0.56992165    -0.05200
Br654      Br  0.75399975  0.10699085  0.45041600     0.00500
Br655      Br  0.76846277  0.40816692  0.44440204     0.00900
Br656      Br  0.73096278  0.24204763  0.56530044    -0.03500
Br657      Br  0.80741296  0.18569551  0.56729141     0.01000
Br658      Br  0.73990814  0.20872429  0.42619047    -0.02800
Br659      Br  0.78233376  0.30468077  0.42668068    -0.03600
Br660      Br  0.71149548  0.33897675  0.55695233     0.00300
C661        C  0.73202343  0.66625927  0.54095457     0.01700
C662        C  0.74576754  0.67860642  0.57148074     0.04600
C663        C  0.75154342  0.72272342  0.57211785    -0.11500
C664        C  0.74475970  0.75424839  0.53890321     0.23900
C665        C  0.73057521  0.74278874  0.51034463    -0.12100
C666        C  0.72365643  0.69996745  0.51415182     0.05300
C667        C  0.75354103  0.79759352  0.53168265     0.27700
C668        C  0.74729776  0.83730840  0.55391201    -0.12800
C669        C  0.75665834  0.87691512  0.55023320     0.05800
C670        C  0.77265513  0.87682681  0.52621244    -0.08700
C671        C  0.77897740  0.83671543  0.50539844     0.06600
C672        C  0.76920624  0.79802770  0.50601743    -0.13100
Br673      Br  0.72097312  0.78500551  0.46445475    -0.05200
Br674      Br  0.75753072  0.63567618  0.61082757     0.00500
Br675      Br  0.74762901  0.93131834  0.57829181     0.00900
Br676      Br  0.77747837  0.74490195  0.47232337    -0.03500
Br677      Br  0.70159577  0.68965930  0.48880989     0.01000
Br678      Br  0.76909741  0.74028809  0.61792537    -0.02800
Br679      Br  0.72622929  0.83706407  0.59094134    -0.03600
Br680      Br  0.80187786  0.83278083  0.48209786     0.00300
C681        C  0.65048372  0.51329367  0.52865853     0.01700
C682        C  0.64094334  0.48432414  0.49817299     0.04600
C683        C  0.62337754  0.48773761  0.49855072    -0.11500
C684        C  0.61523435  0.51710927  0.53294265     0.23900
C685        C  0.62466875  0.54399493  0.56571763    -0.12100
C686        C  0.64222777  0.54392111  0.56156142     0.05300
C687        C  0.59673897  0.51957359  0.53482152     0.27700
C688        C  0.58837122  0.55626420  0.51415587    -0.12800
C689        C  0.57078230  0.55830780  0.51576870     0.05800
C690        C  0.56157289  0.52175827  0.53326530    -0.08700
C691        C  0.56994105  0.48618356  0.55632560     0.06600
C692        C  0.58751039  0.48555727  0.55808870    -0.13100
Br693      Br  0.61347687  0.57990607  0.61731478    -0.05200
Br694      Br  0.65168728  0.43774783  0.45868199     0.00500
Br695      Br  0.55946280  0.61167296  0.49583829     0.00900
Br696      Br  0.59899946  0.43848725  0.59274146    -0.03500
Br697      Br  0.65471991  0.58807474  0.59829390     0.01000
Br698      Br  0.61042723  0.45221680  0.45200614    -0.02800
Br699      Br  0.60097114  0.60297325  0.48212023    -0.03600
Br700      Br  0.55738225  0.43996775  0.58894685     0.00300
C701        C  0.73469325  0.35368930  0.03147507     0.01700
C702        C  0.74876831  0.34117826  0.00100905     0.04600
C703        C  0.75514983  0.29768284  0.00214815    -0.11500
C704        C  0.74872725  0.26707583  0.03742804     0.23900
C705        C  0.73512897  0.27971362  0.06955925    -0.12100
C706        C  0.72773752  0.32217217  0.06527997     0.05300
C707        C  0.75696164  0.22261912  0.04135414     0.27700
C708        C  0.74968786  0.18475138  0.01899339    -0.12800
C709        C  0.75868572  0.14437413  0.01640993     0.05800
C710        C  0.77517076  0.14171673  0.03509044    -0.08700
C711        C  0.78227344  0.17935814  0.05837432     0.06600
C712        C  0.77306694  0.21921635  0.06261216    -0.13100
Br713      Br  0.72694678  0.23921180  0.12037971    -0.05200
Br714      Br  0.76074565  0.38426294  0.96155528     0.00500
Br715      Br  0.74830444  0.09233939  0.98819498     0.00900
Br716      Br  0.78263712  0.26976244  0.09681726    -0.03500
Br717      Br  0.70767295  0.33600609  0.10438554     0.01000
Br718      Br  0.77293590  0.27985229  0.95524127    -0.02800
Br719      Br  0.72752963  0.18844481  0.99088128    -0.03600
Br720      Br  0.80515889  0.17740359  0.08083139     0.00300
C721        C  0.74218225  0.64393486  0.01501008     0.01700
C722        C  0.75713012  0.64761910  0.04306772     0.04600
C723        C  0.76609567  0.68764859  0.04392537    -0.11500
C724        C  0.76078145  0.72359193  0.01447124     0.23900
C725        C  0.74644905  0.71925429  0.98407503    -0.12100
C726        C  0.73692537  0.68009433  0.98538145     0.05300
C727        C  0.76946535  0.76699693  0.01837836     0.27700
C728        C  0.76227741  0.80109868  0.04868838    -0.12800
C729        C  0.76981860  0.84304488  0.05067135     0.05800
C730        C  0.78506603  0.85074090  0.02416770    -0.08700
C731        C  0.79271937  0.81583980  0.99603453     0.06600
C732        C  0.78473702  0.77443460  0.99207555    -0.13100
Br733      Br  0.73971983  0.76767258  0.94147042    -0.05200
Br734      Br  0.76591768  0.59745547  0.07872691     0.00500
Br735      Br  0.75853759  0.89049915  0.08719529     0.00900
Br736      Br  0.79449265  0.72815851  0.94981644    -0.03500
Br737      Br  0.71600452  0.67769044  0.94965294     0.01000
Br738      Br  0.78539315  0.69392513  0.08688470    -0.02800
Br739      Br  0.74192001  0.79022889  0.08730192    -0.03600
Br740      Br  0.81451814  0.82425324  0.96498518     0.00300
C741        C  0.71285339  0.50051509  0.63564543     0.01700
C742        C  0.70197283  0.47160912  0.66305316     0.04600
C743        C  0.70127555  0.47278387  0.71721628    -0.11500
C744        C  0.71171908  0.50154916  0.74496341     0.23900
C745        C  0.72388328  0.52591866  0.71776215    -0.12100
C746        C  0.72557364  0.52093218  0.66444092     0.05300
C747        C  0.71124871  0.50238942  0.80251859     0.27700
C748        C  0.69852637  0.52558100  0.82971300    -0.12800
C749        C  0.69846211  0.52744230  0.88382670     0.05800
C750        C  0.71049366  0.50320213  0.91215260    -0.08700
C751        C  0.72472790  0.48739520  0.88395250     0.06600
C752        C  0.72440692  0.48339218  0.83025534    -0.13100
Br753      Br  0.73838702  0.56650537  0.75293446    -0.05200
Br754      Br  0.69057873  0.42388712  0.62890253     0.00500
Br755      Br  0.68433694  0.57167612  0.91662766     0.00900
Br756      Br  0.74237754  0.45235773  0.79463321    -0.03500
Br757      Br  0.74765762  0.52735646  0.63486431     0.01000
Br758      Br  0.68642488  0.43378820  0.75395762    -0.02800
Br759      Br  0.68156743  0.55668548  0.79227423    -0.03600
Br760      Br  0.74643154  0.48440309  0.91506675     0.00300
C761        C  0.71010682  0.51490998  0.41174756     0.01700
C762        C  0.70971158  0.55470409  0.38399880     0.04600
C763        C  0.71247255  0.55454469  0.33081158    -0.11500
C764        C  0.71164882  0.51469430  0.30266030     0.23900
C765        C  0.70811648  0.47538006  0.32902347    -0.12100
C766        C  0.70675418  0.47559265  0.38299855     0.05300
C767        C  0.71197695  0.51515588  0.24535822     0.27700
C768        C  0.69803648  0.53098707  0.21858730    -0.12800
C769        C  0.69866686  0.53405348  0.16499874     0.05800
C770        C  0.71177081  0.51304071  0.13630748    -0.08700
C771        C  0.72662925  0.50261139  0.16345186     0.06600
C772        C  0.72655258  0.50293956  0.21752034    -0.13100
Br773      Br  0.70452619  0.42154044  0.29057872    -0.05200
Br774      Br  0.69599877  0.60235257  0.40986614     0.00500
Br775      Br  0.68436276  0.57791683  0.13443566     0.00900
Br776      Br  0.74656055  0.48783497  0.25407971     0.00100
Br777      Br  0.69695592  0.42420812  0.41488803     0.01000
Br778      Br  0.71608424  0.60987297  0.29650766    -0.02800
Br779      Br  0.67789722  0.54874151  0.25526085    -0.03600
Br780      Br  0.74799670  0.49529460  0.12856327     0.00300
C781        C  0.56068902  0.43765313  0.05384201     0.01700
C782        C  0.56819973  0.47018861  0.08477674     0.04600
C783        C  0.58584956  0.47414420  0.08566954    -0.11500
C784        C  0.59603466  0.44834762  0.05201732     0.23900
C785        C  0.58843491  0.41458475  0.02278420    -0.12100
C786        C  0.57101296  0.40718080  0.02700691     0.05300
C787        C  0.61451102  0.45727657  0.04654484     0.27700
C788        C  0.62018754  0.49638815  0.02287726    -0.12800
C789        C  0.63752948  0.50517912  0.01832874     0.05800
C790        C  0.64946342  0.47393296  0.03448855    -0.08700
C791        C  0.64383722  0.43445710  0.05699962     0.06600
C792        C  0.62649838  0.42666624  0.06428371    -0.13100
Br793      Br  0.60149855  0.38095806  0.97337348    -0.05200
Br794      Br  0.55419332  0.50829926  0.12703340     0.00500
Br795      Br  0.64498323  0.56132376  0.99282073     0.00900
Br796      Br  0.61920479  0.37453002  0.09989623    -0.03500
Br797      Br  0.56135992  0.35476733  0.99722699     0.01000
Br798      Br  0.59605320  0.51514717  0.13254442    -0.02800
Br799      Br  0.60420873  0.53783586  0.99582807    -0.03600
Br800      Br  0.66003601  0.39051466  0.07626873     0.00300
loop_ 
_geom_bond_atom_site_label_1 
_geom_bond_atom_site_label_2 
_geom_bond_distance 
_geom_bond_site_symmetry_2 
_ccdc_geom_bond_type 
C1            C3   1.538       .  S
C1            C5   1.556       .  S
C1            C4   1.556       .  S
C1          C750   1.563       .  S
C2            C6   1.531       .  S
C2            C8   1.550       .  S
C2            C7   1.553       .  S
C2          C770   1.559       .  S
C3           C11   1.381       .  A
C3            C6   1.387   1_556  A
C4           C15   1.390       .  A
C4            C7   1.405   1_556  A
C5           C19   1.388       .  A
C5            C8   1.402   1_556  A
C6            C9   1.378       .  A
C7           C13   1.385       .  A
C8           C16   1.383       .  A
C9           N10   1.360       .  A
C9           H22   1.083       .  S
N10          C11   1.361   1_554  A
N10         C721   1.447       .  S
C11          H12   1.081       .  S
C13          N14   1.356       .  A
C13          H23   1.085       .  S
N14          C15   1.361   1_554  A
N14         C790   1.449       .  S
C15          H21   1.079       .  S
C16          N17   1.359       .  A
C16          H18   1.084       .  S
N17          C19   1.363   1_554  A
N17         C701   1.454       .  S
C19          H20   1.079       .  S
C24          C26   1.568       .  S
C24          C28   1.549       .  S
C24          C27   1.533       .  S
C24         C761   1.566       .  S
C25          C29   1.559       .  S
C25          C31   1.541       .  S
C25          C30   1.539       .  S
C25         C741   1.564       .  S
C26          C34   1.394       .  A
C26          C29   1.406       .  A
C27          C38   1.375       .  A
C27          C30   1.396       .  A
C28          C42   1.384       .  A
C28          C31   1.395       .  A
C29          C32   1.389       .  A
C30          C36   1.377       .  A
C31          C39   1.382       .  A
C32          N33   1.360       .  A
C32          H45   1.082       .  S
N33          C34   1.365       .  A
N33         C661   1.459       .  S
C34          H35   1.081       .  S
C36          N37   1.356       .  A
C36          H46   1.083       .  S
N37          C38   1.356       .  A
N37         C681   1.437       .  S
C38          H44   1.081       .  S
C39          N40   1.362       .  A
C39          H41   1.082       .  S
N40          C42   1.359       .  A
N40         C650   1.451       .  S
C42          H43   1.082       .  S
C47          C49   1.545       .  S
C47          C51   1.536   1_545  S
C47          C50   1.552       .  S
C47         C610   1.561   1_545  S
C48          C52   1.542   1_556  S
C48          C54   1.548   1_545  S
C48          C53   1.553       .  S
C48         C590   1.564       .  S
C49          C57   1.382       .  A
C49          C52   1.396       .  A
C50          C61   1.382       .  A
C50          C53   1.403   1_554  A
C51          C65   1.377       .  A
C51          C54   1.398   1_554  A
C52          C55   1.382   1_554  A
C53          C59   1.384       .  A
C54          C62   1.383       .  A
C55          N56   1.361   1_556  A
C55          H68   1.081       .  S
N56          C57   1.359       .  A
N56         C710   1.446       .  S
C57          H58   1.084       .  S
C59          N60   1.356   1_556  A
C59          H69   1.082   1_545  S
N60          C61   1.355       .  A
N60         C621   1.441       .  S
C61          H67   1.081       .  S
C62          N63   1.360   1_556  A
C62          H64   1.081       .  S
N63          C65   1.357       .  A
N63         C730   1.443       .  S
C65          H66   1.083       .  S
C70          C72   1.567       .  S
C70          C74   1.550   1_545  S
C70          C73   1.542       .  S
C70         C581   1.565       .  S
C71          C75   1.545       .  S
C71          C77   1.558   1_545  S
C71          C76   1.533       .  S
C71         C601   1.561       .  S
C72          C80   1.394       .  A
C72          C75   1.404       .  A
C73          C84   1.384       .  A
C73          C76   1.392       .  A
C74          C88   1.385       .  A
C74          C77   1.401       .  A
C75          C78   1.379       .  A
C76          C82   1.379       .  A
C77          C85   1.390       .  A
C78          N79   1.354       .  A
C78          H91   1.083       .  S
N79          C80   1.365       .  A
N79         C641   1.452       .  S
C80          H81   1.080       .  S
C82          N83   1.358       .  A
C82          H92   1.077       .  S
N83          C84   1.361       .  A
N83         C561   1.444       .  S
C84          H90   1.087       .  S
C85          N86   1.363       .  A
C85          H87   1.083       .  S
N86          C88   1.359       .  A
N86         C670   1.452       .  S
C88          H89   1.081       .  S
O93         V101   1.901       .  S
O93         C103   1.265       .  A
O94         V101   1.908   1_556  S
O94         C104   1.266       .  A
O95         V101   1.882       .  S
O95         C105   1.260       .  A
O96         V101   1.886   1_556  S
O96         C106   1.262       .  A
O97         V102   1.898   1_556  S
O97         C106   1.262       .  A
O98         V102   1.887       .  S
O98         C105   1.262       .  A
O99         V102   1.910       .  S
O99         C104   1.267   1_554  A
O100        V102   1.917       .  S
O100        C103   1.267       .  A
V101        V102   2.087       .  T
C103        C781   1.487       .  S
C104        C510   1.490       .  S
C105        C541   1.470       .  S
C106        C530   1.465       .  S
O107        V115   1.897       .  S
O107        C117   1.262       .  A
O108        V115   1.898       .  S
O108        C118   1.264       .  A
O109        V115   1.882       .  S
O109        C119   1.262       .  A
O110        V115   1.894       .  S
O110        C120   1.259       .  A
O111        V116   1.893       .  S
O111        C120   1.265       .  A
O112        V116   1.895       .  S
O112        C119   1.261       .  A
O113        V116   1.898       .  S
O113        C118   1.263       .  A
O114        V116   1.895       .  S
O114        C117   1.264       .  A
V115        V116   2.084       .  T
C117        C690   1.470       .  S
C118        C481   1.494       .  S
C119        C521   1.487       .  S
C120        C550   1.462       .  S
O121        V129   1.906   1_655  S
O121        C131   1.266   1_556  A
O122        V129   1.914       .  S
O122        C132   1.268   1_556  A
O123        V129   1.877       .  S
O123        C133   1.259   1_545  A
O124        V129   1.878   1_554  S
O124        C134   1.256       .  A
O125        V130   1.897       .  S
O125        C134   1.265   1_565  A
O126        V130   1.907   1_556  S
O126        C133   1.266       .  A
O127        V130   1.901       .  S
O127        C132   1.262   1_565  A
O128        V130   1.905   1_655  S
O128        C131   1.265   1_565  A
V129        V130   2.081   1_546  T
C131        C630   1.486   1_545  S
C132        C430   1.482       .  S
C133        C441   1.488       .  S
C134        C470   1.493       .  S
O135        V143   1.910       .  S
O135        C145   1.268       .  A
O136        V143   1.912   1_655  S
O136        C146   1.268       .  A
O137        V143   1.883   1_565  S
O137        C147   1.262       .  A
O138        V143   1.888       .  S
O138        C148   1.256       .  A
O139        V144   1.892   1_545  S
O139        C148   1.266       .  A
O140        V144   1.903       .  S
O140        C147   1.262       .  A
O141        V144   1.899   1_655  S
O141        C146   1.264   1_565  A
O142        V144   1.899       .  S
O142        C145   1.263   1_565  A
V143        V144   2.085   1_545  T
C145        C401   1.499       .  S
C146        C570   1.502       .  S
C147        C450   1.461       .  S
C148        C461   1.456       .  S
C149        C151   1.560       .  S
C149        C153   1.563       .  S
C149        C152   1.542       .  S
C149        C361   1.565       .  S
C150        C154   1.552   1_554  S
C150        C156   1.553   1_554  S
C150        C155   1.528   1_554  S
C150        C381   1.561       .  S
C151        C159   1.390       .  A
C151        C154   1.402       .  A
C152        C163   1.387       .  A
C152        C155   1.387       .  A
C153        C167   1.387       .  A
C153        C156   1.402       .  A
C154        C157   1.384       .  A
C155        C161   1.376   1_556  A
C156        C164   1.388   1_556  A
C157        N158   1.360       .  A
C157        H170   1.080   1_556  S
N158        C159   1.365       .  A
N158        C330   1.458       .  S
C159        H160   1.083       .  S
C161        N162   1.352   1_554  A
C161        H171   1.087       .  S
N162        C163   1.362       .  A
N162        C501   1.439       .  S
C163        H169   1.078       .  S
C164        N165   1.365   1_554  A
C164        H166   1.074       .  S
N165        C167   1.363       .  A
N165        C341   1.465       .  S
C167        H168   1.086       .  S
C172        C174   1.536       .  S
C172        C176   1.550       .  S
C172        C175   1.549       .  S
C172        C390   1.563       .  S
C173        C177   1.549       .  S
C173        C179   1.534       .  S
C173        C178   1.543       .  S
C173        C370   1.562       .  S
C174        C182   1.375       .  A
C174        C177   1.399       .  A
C175        C186   1.381       .  A
C175        C178   1.402       .  A
C176        C190   1.383       .  A
C176        C179   1.397       .  A
C177        C180   1.384       .  A
C178        C184   1.374       .  A
C179        C187   1.376       .  A
C180        N181   1.361       .  A
C180        H193   1.082       .  S
N181        C182   1.358       .  A
N181        C281   1.445       .  S
C182        H183   1.083       .  S
C184        N185   1.352       .  A
C184        H194   1.085       .  S
N185        C186   1.355       .  A
N185        C490   1.433       .  S
C186        H192   1.079       .  S
C187        N188   1.357       .  A
C187        H189   1.086       .  S
N188        C190   1.362       .  A
N188        C301   1.446       .  S
C190        H191   1.079       .  S
C195        C197   1.560   1_544  S
C195        C199   1.556   1_554  S
C195        C198   1.531   1_554  S
C195        C261   1.564       .  S
C196        C200   1.552   1_545  S
C196        C202   1.567       .  S
C196        C201   1.542       .  S
C196        C241   1.563   1_545  S
C197        C205   1.390   1_556  A
C197        C200   1.402       .  A
C198        C209   1.377   1_556  A
C198        C201   1.391       .  A
C199        C213   1.389   1_556  A
C199        C202   1.404       .  A
C200        C203   1.388       .  A
C201        C207   1.385       .  A
C202        C210   1.393       .  A
C203        N204   1.357       .  A
C203        H216   1.082       .  S
N204        C205   1.360   1_556  A
N204        C350   1.449       .  S
C205        H206   1.081       .  S
C207        N208   1.362       .  A
C207        H217   1.085       .  S
N208        C209   1.356   1_556  A
N208        C421   1.443       .  S
C209        H215   1.080       .  S
C210        N211   1.364       .  A
C210        H212   1.083       .  S
N211        C213   1.362   1_556  A
N211        C321   1.460       .  S
C213        H214   1.080       .  S
C218        C220   1.553       .  S
C218        C222   1.543   1_565  S
C218        C221   1.550   1_565  S
C218        C250   1.566   1_565  S
C219        C223   1.538       .  S
C219        C225   1.546   1_565  S
C219        C224   1.550   1_565  S
C219        C270   1.559       .  S
C220        C228   1.387       .  A
C220        C223   1.398       .  A
C221        C232   1.382   1_545  A
C221        C224   1.400       .  A
C222        C236   1.379       .  A
C222        C225   1.398       .  A
C223        C226   1.377       .  A
C224        C230   1.385       .  A
C225        C233   1.383       .  A
C226        N227   1.357       .  A
C226        H239   1.085       .  S
N227        C228   1.366       .  A
N227        C310   1.450       .  S
C228        H229   1.080       .  S
C230        N231   1.354       .  A
C230        H240   1.084       .  S
N231        C232   1.354   1_545  A
N231        C410   1.438       .  S
C232        H238   1.079       .  S
C233        N234   1.361       .  A
C233        H235   1.082       .  S
N234        C236   1.360       .  A
N234        C290   1.447       .  S
C236        H237   1.082       .  S
C241        C242   1.411   1_565  A
C241        C246   1.425       .  A
C242        C243   1.407       .  A
C242       Br254   1.917       .  S
C243        C244   1.410   1_545  A
C243       Br258   1.929       .  S
C244        C245   1.414       .  A
C244        C247   1.509       .  S
C245        C246   1.424       .  A
C245       Br253   1.927       .  S
C246       Br257   1.932       .  S
C247        C248   1.410   1_565  A
C247        C252   1.411       .  A
C248        C249   1.410       .  A
C248       Br259   1.930       .  S
C249        C250   1.421       .  A
C249       Br255   1.934       .  S
C250        C251   1.422   1_545  A
C251        C252   1.421       .  A
C251       Br260   1.920       .  S
C252       Br256   1.929       .  S
C261        C262   1.420   1_545  A
C261        C266   1.428       .  A
C262        C263   1.406       .  A
C262       Br274   1.923       .  S
C263        C264   1.406   1_565  A
C263       Br278   1.932       .  S
C264        C265   1.411       .  A
C264        C267   1.504       .  S
C265        C266   1.422       .  A
C265       Br273   1.929       .  S
C266       Br277   1.933       .  S
C267        C268   1.412   1_545  A
C267        C272   1.410       .  A
C268        C269   1.411       .  A
C268       Br279   1.931       .  S
C269        C270   1.420       .  A
C269       Br275   1.935       .  S
C270        C271   1.421   1_565  A
C271        C272   1.418       .  A
C271       Br280   1.925       .  S
C272       Br276   1.929       .  S
C281        C282   1.414       .  A
C281        C286   1.414       .  A
C282        C283   1.406       .  A
C282       Br294   1.930       .  S
C283        C284   1.408       .  A
C283       Br298   1.931       .  S
C284        C285   1.411       .  A
C284        C287   1.490       .  S
C285        C286   1.412       .  A
C285       Br293   1.930       .  S
C286       Br297   1.928       .  S
C287        C288   1.410       .  A
C287        C292   1.408       .  A
C288        C289   1.410       .  A
C288       Br299   1.930       .  S
C289        C290   1.413       .  A
C289       Br295   1.927       .  S
C290        C291   1.414       .  A
C291        C292   1.409       .  A
C291       Br300   1.921       .  S
C292       Br296   1.931       .  S
C301        C302   1.417       .  A
C301        C306   1.414       .  A
C302        C303   1.409       .  A
C302       Br314   1.930       .  S
C303        C304   1.408       .  A
C303       Br318   1.931       .  S
C304        C305   1.409       .  A
C304        C307   1.489       .  S
C305        C306   1.410       .  A
C305       Br313   1.930       .  S
C306       Br317   1.929       .  S
C307        C308   1.409       .  A
C307        C312   1.405       .  A
C308        C309   1.413       .  A
C308       Br319   1.929       .  S
C309        C310   1.418       .  A
C309       Br315   1.928       .  S
C310        C311   1.413       .  A
C311        C312   1.405       .  A
C311       Br320   1.916       .  S
C312       Br316   1.932       .  S
C321        C322   1.416       .  A
C321        C326   1.418       .  A
C322        C323   1.418       .  A
C322       Br334   1.926   1_556  S
C323        C324   1.413       .  A
C323       Br338   1.928   1_556  S
C324        C325   1.406       .  A
C324        C327   1.502       .  S
C325        C326   1.411       .  A
C325       Br333   1.933       .  S
C326       Br337   1.913       .  S
C327        C328   1.412       .  A
C327        C332   1.407       .  A
C328        C329   1.416       .  A
C328       Br339   1.929   1_556  S
C329        C330   1.417       .  A
C329       Br335   1.929   1_556  S
C330        C331   1.419       .  A
C331        C332   1.413       .  A
C331       Br340   1.918       .  S
C332       Br336   1.933       .  S
C341        C342   1.422       .  A
C341        C346   1.425   1_556  A
C342        C343   1.416       .  A
C342       Br354   1.930       .  S
C343        C344   1.409       .  A
C343       Br358   1.930       .  S
C344        C345   1.406   1_556  A
C344        C347   1.501       .  S
C345        C346   1.414       .  A
C345       Br353   1.934       .  S
C346       Br357   1.922       .  S
C347        C348   1.414       .  A
C347        C352   1.410       .  A
C348        C349   1.415       .  A
C348       Br359   1.927       .  S
C349        C350   1.408       .  A
C349       Br355   1.924       .  S
C350        C351   1.413       .  A
C351        C352   1.411       .  A
C351       Br360   1.920       .  S
C352       Br356   1.930   1_556  S
C361        C362   1.426       .  A
C361        C366   1.419       .  A
C362        C363   1.418       .  A
C362       Br374   1.926       .  S
C363        C364   1.409       .  A
C363       Br378   1.930       .  S
C364        C365   1.410       .  A
C364        C367   1.507       .  S
C365        C366   1.413       .  A
C365       Br373   1.929       .  S
C366       Br377   1.930       .  S
C367        C368   1.409       .  A
C367        C372   1.410       .  A
C368        C369   1.412       .  A
C368       Br379   1.931       .  S
C369        C370   1.425       .  A
C369       Br375   1.936       .  S
C370        C371   1.425       .  A
C371        C372   1.419       .  A
C371       Br380   1.932       .  S
C372       Br376   1.929       .  S
C381        C382   1.429       .  A
C381        C386   1.424       .  A
C382        C383   1.418       .  A
C382       Br394   1.932       .  S
C383        C384   1.408       .  A
C383       Br398   1.931       .  S
C384        C385   1.410       .  A
C384        C387   1.506       .  S
C385        C386   1.413       .  A
C385       Br393   1.930       .  S
C386       Br397   1.933       .  S
C387        C388   1.410       .  A
C387        C392   1.409       .  A
C388        C389   1.413       .  A
C388       Br399   1.930       .  S
C389        C390   1.424       .  A
C389       Br395   1.935       .  S
C390        C391   1.425       .  A
C391        C392   1.418       .  A
C391       Br400   1.932       .  S
C392       Br396   1.931       .  S
C401        C402   1.420       .  A
C401        C406   1.425   1_545  A
C402        C403   1.410       .  A
C402       Br414   1.934       .  S
C403        C404   1.407   1_545  A
C403       Br418   1.931       .  S
C404        C405   1.405       .  A
C404        C407   1.490   1_565  S
C405        C406   1.411       .  A
C405       Br413   1.933       .  S
C406       Br417   1.936       .  S
C407        C408   1.411       .  A
C407        C412   1.410   1_545  A
C408        C409   1.410       .  A
C408       Br419   1.929       .  S
C409        C410   1.408       .  A
C409       Br415   1.926       .  S
C410        C411   1.408   1_545  A
C411        C412   1.408       .  A
C411       Br420   1.926       .  S
C412       Br416   1.928       .  S
C421        C422   1.409       .  A
C421        C426   1.411   1_546  A
C422        C423   1.411       .  A
C422       Br434   1.925       .  S
C423        C424   1.411       .  A
C423       Br438   1.928       .  S
C424        C425   1.410   1_546  A
C424        C427   1.493   1_556  S
C425        C426   1.410       .  A
C425       Br433   1.929       .  S
C426       Br437   1.926       .  S
C427        C428   1.412       .  A
C427        C432   1.410   1_544  A
C428        C429   1.413       .  A
C428       Br439   1.927       .  S
C429        C430   1.410       .  A
C429       Br435   1.930       .  S
C430        C431   1.409   1_544  A
C431        C432   1.409       .  A
C431       Br440   1.926       .  S
C432       Br436   1.930       .  S
C441        C442   1.420       .  A
C441        C446   1.423       .  A
C442        C443   1.409       .  A
C442       Br454   1.931   1_455  S
C443        C444   1.405       .  A
C443       Br458   1.930       .  S
C444        C445   1.408       .  A
C444        C447   1.479       .  S
C445        C446   1.401       .  A
C445       Br453   1.939       .  S
C446       Br457   1.942   1_565  S
C447        C448   1.410       .  A
C447        C452   1.411   1_455  A
C448        C449   1.405       .  A
C448       Br459   1.928       .  S
C449        C450   1.405       .  A
C449       Br455   1.927       .  S
C450        C451   1.403   1_455  A
C451        C452   1.402       .  A
C451       Br460   1.928       .  S
C452       Br456   1.930       .  S
C461        C462   1.402       .  A
C461        C466   1.403   1_455  A
C462        C463   1.399       .  A
C462       Br474   1.924       .  S
C463        C464   1.408       .  A
C463       Br478   1.928       .  S
C464        C465   1.407   1_455  A
C464        C467   1.468       .  S
C465        C466   1.401       .  A
C465       Br473   1.926       .  S
C466       Br477   1.926       .  S
C467        C468   1.396       .  A
C467        C472   1.406       .  A
C468        C469   1.406       .  A
C468       Br479   1.934       .  S
C469        C470   1.433       .  A
C469       Br475   1.938       .  S
C470        C471   1.423       .  A
C471        C472   1.400       .  A
C471       Br480   1.940   1_545  S
C472       Br476   1.938       .  S
C481        C482   1.424       .  A
C481        C486   1.422       .  A
C482        C483   1.408       .  A
C482       Br494   1.935       .  S
C483        C484   1.403       .  A
C483       Br498   1.934       .  S
C484        C485   1.404       .  A
C484        C487   1.479       .  S
C485        C486   1.407       .  A
C485       Br493   1.934       .  S
C486       Br497   1.934       .  S
C487        C488   1.409       .  A
C487        C492   1.408       .  A
C488        C489   1.405       .  A
C488       Br499   1.929       .  S
C489        C490   1.408       .  A
C489       Br495   1.927       .  S
C490        C491   1.409       .  A
C491        C492   1.404       .  A
C491       Br500   1.929       .  S
C492       Br496   1.930       .  S
C501        C502   1.406       .  A
C501        C506   1.408       .  A
C502        C503   1.409       .  A
C502       Br514   1.924       .  S
C503        C504   1.411       .  A
C503       Br518   1.928       .  S
C504        C505   1.413       .  A
C504        C507   1.494       .  S
C505        C506   1.412       .  A
C505       Br513   1.927   1_556  S
C506       Br517   1.926   1_556  S
C507        C508   1.409   1_556  A
C507        C512   1.411       .  A
C508        C509   1.411       .  A
C508       Br519   1.931       .  S
C509        C510   1.416   1_554  A
C509       Br515   1.930       .  S
C510        C511   1.412       .  A
C511        C512   1.413       .  A
C511       Br520   1.928       .  S
C512       Br516   1.929       .  S
C521        C522   1.418       .  A
C521        C526   1.426       .  A
C522        C523   1.395       .  A
C522       Br534   1.940       .  S
C523        C524   1.407       .  A
C523       Br538   1.939       .  S
C524        C525   1.402       .  A
C524        C527   1.472       .  S
C525        C526   1.410       .  A
C525       Br533   1.930       .  S
C526       Br537   1.934       .  S
C527        C528   1.407       .  A
C527        C532   1.403       .  A
C528        C529   1.403       .  A
C528       Br539   1.929       .  S
C529        C530   1.409       .  A
C529       Br535   1.930       .  S
C530        C531   1.413       .  A
C531        C532   1.402       .  A
C531       Br540   1.928       .  S
C532       Br536   1.929       .  S
C541        C542   1.413       .  A
C541        C546   1.417       .  A
C542        C543   1.397       .  A
C542       Br554   1.937       .  S
C543        C544   1.411       .  A
C543       Br558   1.937       .  S
C544        C545   1.401       .  A
C544        C547   1.468       .  S
C545        C546   1.403       .  A
C545       Br553   1.929       .  S
C546       Br557   1.933       .  S
C547        C548   1.405       .  A
C547        C552   1.406       .  A
C548        C549   1.401       .  A
C548       Br559   1.928       .  S
C549        C550   1.409       .  A
C549       Br555   1.926       .  S
C550        C551   1.406       .  A
C551        C552   1.400       .  A
C551       Br560   1.920       .  S
C552       Br556   1.930       .  S
C561        C562   1.410       .  A
C561        C566   1.409   1_545  A
C562        C563   1.411       .  A
C562       Br574   1.924       .  S
C563        C564   1.410       .  A
C563       Br578   1.929       .  S
C564        C565   1.412   1_545  A
C564        C567   1.495       .  S
C565        C566   1.412       .  A
C565       Br573   1.929       .  S
C566       Br577   1.925       .  S
C567        C568   1.407       .  A
C567        C572   1.408       .  A
C568        C569   1.412       .  A
C568       Br579   1.932   1_545  S
C569        C570   1.423       .  A
C569       Br575   1.936       .  S
C570        C571   1.421       .  A
C571        C572   1.413       .  A
C571       Br580   1.933       .  S
C572       Br576   1.931       .  S
C581        C582   1.429   1_545  A
C581        C586   1.414       .  A
C582        C583   1.422       .  A
C582       Br594   1.934       .  S
C583        C584   1.412   1_565  A
C583       Br598   1.930       .  S
C584        C585   1.410       .  A
C584        C587   1.512       .  S
C585        C586   1.410       .  A
C585       Br593   1.930       .  S
C586       Br597   1.919       .  S
C587        C588   1.413   1_545  A
C587        C592   1.411       .  A
C588        C589   1.423       .  A
C588       Br599   1.930       .  S
C589        C590   1.427   1_565  A
C589       Br595   1.933       .  S
C590        C591   1.421       .  A
C591        C592   1.410       .  A
C591       Br600   1.935       .  S
C592       Br596   1.931       .  S
C601        C602   1.428       .  A
C601        C606   1.417   1_545  A
C602        C603   1.418       .  A
C602       Br614   1.934       .  S
C603        C604   1.409       .  A
C603       Br618   1.929       .  S
C604        C605   1.408   1_545  A
C604        C607   1.502       .  S
C605        C606   1.411       .  A
C605       Br613   1.930       .  S
C606       Br617   1.923       .  S
C607        C608   1.409       .  A
C607        C612   1.408   1_545  A
C608        C609   1.419       .  A
C608       Br619   1.930       .  S
C609        C610   1.427   1_545  A
C609       Br615   1.933       .  S
C610        C611   1.420       .  A
C611        C612   1.409       .  A
C611       Br620   1.933       .  S
C612       Br616   1.929       .  S
C621        C622   1.411   1_544  A
C621        C626   1.409       .  A
C622        C623   1.411       .  A
C622       Br634   1.927       .  S
C623        C624   1.410   1_556  A
C623       Br638   1.929       .  S
C624        C625   1.410   1_565  A
C624        C627   1.491       .  S
C625        C626   1.409       .  A
C625       Br633   1.929       .  S
C626       Br637   1.927       .  S
C627        C628   1.409       .  A
C627        C632   1.409   1_564  A
C628        C629   1.411       .  A
C628       Br639   1.930       .  S
C629        C630   1.414       .  A
C629       Br635   1.928       .  S
C630        C631   1.412   1_564  A
C631        C632   1.410       .  A
C631       Br640   1.930       .  S
C632       Br636   1.929       .  S
C641        C642   1.416       .  A
C641        C646   1.415       .  A
C642        C643   1.414       .  A
C642       Br654   1.928       .  S
C643        C644   1.411       .  A
C643       Br658   1.929       .  S
C644        C645   1.408       .  A
C644        C647   1.496       .  S
C645        C646   1.409       .  A
C645       Br653   1.932       .  S
C646       Br657   1.919       .  S
C647        C648   1.412       .  A
C647        C652   1.408       .  A
C648        C649   1.414       .  A
C648       Br659   1.929       .  S
C649        C650   1.415       .  A
C649       Br655   1.927       .  S
C650        C651   1.415       .  A
C651        C652   1.409       .  A
C651       Br660   1.923       .  S
C652       Br656   1.931       .  S
C661        C662   1.417       .  A
C661        C666   1.415       .  A
C662        C663   1.413       .  A
C662       Br674   1.918       .  S
C663        C664   1.410       .  A
C663       Br678   1.932       .  S
C664        C665   1.410       .  A
C664        C667   1.501       .  S
C665        C666   1.414       .  A
C665       Br673   1.928       .  S
C666       Br677   1.917       .  S
C667        C668   1.414       .  A
C667        C672   1.410       .  A
C668        C669   1.418       .  A
C668       Br679   1.928       .  S
C669        C670   1.414       .  A
C669       Br675   1.926       .  S
C670        C671   1.412       .  A
C671        C672   1.409       .  A
C671       Br680   1.920       .  S
C672       Br676   1.933       .  S
C681        C682   1.413       .  A
C681        C686   1.412       .  A
C682        C683   1.404       .  A
C682       Br694   1.928       .  S
C683        C684   1.408       .  A
C683       Br698   1.932       .  S
C684        C685   1.406       .  A
C684        C687   1.477       .  S
C685        C686   1.403       .  A
C685       Br693   1.931       .  S
C686       Br697   1.928       .  S
C687        C688   1.410       .  A
C687        C692   1.407       .  A
C688        C689   1.404       .  A
C688       Br699   1.930       .  S
C689        C690   1.407       .  A
C689       Br695   1.926       .  S
C690        C691   1.410       .  A
C691        C692   1.403       .  A
C691       Br700   1.924       .  S
C692       Br696   1.932       .  S
C701        C702   1.415       .  A
C701        C706   1.418       .  A
C702        C703   1.408       .  A
C702       Br714   1.921   1_554  S
C703        C704   1.409       .  A
C703       Br718   1.934   1_554  S
C704        C705   1.412       .  A
C704        C707   1.498       .  S
C705        C706   1.416       .  A
C705       Br713   1.929       .  S
C706       Br717   1.929       .  S
C707        C708   1.412       .  A
C707        C712   1.412       .  A
C708        C709   1.413       .  A
C708       Br719   1.929   1_554  S
C709        C710   1.413       .  A
C709       Br715   1.927   1_554  S
C710        C711   1.411       .  A
C711        C712   1.410       .  A
C711       Br720   1.928       .  S
C712       Br716   1.930       .  S
C721        C722   1.415       .  A
C721        C726   1.414   1_554  A
C722        C723   1.409       .  A
C722       Br734   1.926       .  S
C723        C724   1.408       .  A
C723       Br738   1.931       .  S
C724        C725   1.410   1_554  A
C724        C727   1.490       .  S
C725        C726   1.410       .  A
C725       Br733   1.931       .  S
C726       Br737   1.928       .  S
C727        C728   1.409       .  A
C727        C732   1.411   1_554  A
C728        C729   1.407       .  A
C728       Br739   1.932       .  S
C729        C730   1.413       .  A
C729       Br735   1.927       .  S
C730        C731   1.412   1_554  A
C731        C732   1.411       .  A
C731       Br740   1.928       .  S
C732       Br736   1.929       .  S
C741        C742   1.427       .  A
C741        C746   1.415       .  A
C742        C743   1.422       .  A
C742       Br754   1.929       .  S
C743        C744   1.412       .  A
C743       Br758   1.930       .  S
C744        C745   1.411       .  A
C744        C747   1.510       .  S
C745        C746   1.410       .  A
C745       Br753   1.928       .  S
C746       Br757   1.925       .  S
C747        C748   1.410       .  A
C747        C752   1.410       .  A
C748        C749   1.420       .  A
C748       Br759   1.931       .  S
C749        C750   1.427       .  A
C749       Br755   1.930       .  S
C750        C751   1.423       .  A
C751        C752   1.414       .  A
C751       Br760   1.928       .  S
C752       Br756   1.932       .  S
C761        C762   1.414       .  A
C761        C766   1.429       .  A
C762        C763   1.409       .  A
C762       Br774   1.916       .  S
C763        C764   1.409       .  A
C763       Br778   1.929       .  S
C764        C765   1.409       .  A
C764        C767   1.504       .  S
C765        C766   1.419       .  A
C765       Br773   1.930       .  S
C766       Br777   1.935       .  S
C767        C768   1.409       .  A
C767        C772   1.409       .  A
C768        C769   1.410       .  A
C768       Br779   1.930       .  S
C769        C770   1.421       .  A
C769       Br775   1.934       .  S
C770        C771   1.428       .  A
C771        C772   1.419       .  A
C771       Br780   1.932       .  S
C772       Br776   1.930       .  S
C781        C782   1.410       .  A
C781        C786   1.408       .  A
C782        C783   1.414       .  A
C782       Br794   1.930       .  S
C783        C784   1.415       .  A
C783       Br798   1.929       .  S
C784        C785   1.415       .  A
C784        C787   1.504       .  S
C785        C786   1.411       .  A
C785       Br793   1.928   1_554  S
C786       Br797   1.928   1_554  S
C787        C788   1.415       .  A
C787        C792   1.415       .  A
C788        C789   1.413       .  A
C788       Br799   1.931   1_554  S
C789        C790   1.411       .  A
C789       Br795   1.925   1_554  S
C790        C791   1.410       .  A
C791        C792   1.414       .  A
C791       Br800   1.925       .  S
C792       Br796   1.929       .  S
