geometry optimzed in LAMMPS
_audit_creation_date              2020-11-30 
_audit_creation_method            'lammps2cif' 
_symmetry_space_group_name_H-M    'P1' 
_symmetry_Int_Tables_number       1 
_symmetry_cell_setting            triclinic 
loop_ 
_symmetry_equiv_pos_as_xyz 
  x,y,z 
_cell_length_a                    29.9856059 
_cell_length_b                    30.131243125331366 
_cell_length_c                    29.626573649375697 
_cell_angle_alpha                 87.90705233786113 
_cell_angle_beta                  90.70727568178309 
_cell_angle_gamma                 90.26069155026131 
loop_ 
_atom_site_label 
_atom_site_type_symbol 
_atom_site_fract_x 
_atom_site_fract_y 
_atom_site_fract_z 
_atom_site_charge 
C1          C  0.94618635  0.03460956  0.96119264     0.01700
C2          C  0.98308846  0.05289255  0.93765801     0.01700
C3          C  0.00754605  0.01932161  0.91822566     0.01700
C4          C  0.02435130  0.98838477  0.95084434     0.01700
C5          C  0.99230472  0.97129203  0.98125127     0.01700
C6          C  0.95873677  0.00121547  0.99423014     0.01700
O7          O  0.06438601  0.18754018  0.81368203    -0.80700
O8          O  0.91821416  0.31538715  0.84667206    -0.80800
O9          O  0.96093141  0.17939555  0.81213557    -0.80800
O10         O  0.04504323  0.33659942  0.81346676    -0.80700
O11         O  0.92579484  0.24087374  0.81166296    -0.80800
O12         O  0.08348614  0.27721155  0.79619320    -0.80800
O13         O  0.97628495  0.35764481  0.86423224    -0.80700
O14         O  0.02691482  0.14569556  0.86157159    -0.80800
C15         C  0.05423574  0.14836833  0.82818499     1.08900
C16         C  0.93704045  0.35360931  0.84603013     1.08800
C17         C  0.93421658  0.20547967  0.79302028     1.09000
C18         C  0.07264678  0.31769745  0.78899689     1.08800
O19         O  0.10737793  0.29334801  0.88887638    -0.80700
O20         O  0.88512699  0.22907769  0.89496566    -0.80800
O21         O  0.00400775  0.20961516  0.93169065    -0.80800
O22         O  0.01951387  0.29343309  0.93587540    -0.80700
O23         O  0.94829619  0.28109007  0.93321787    -0.80800
O24         O  0.07390512  0.20532622  0.91127808    -0.80800
O25         O  0.07199063  0.35668440  0.89907703    -0.80700
O26         O  0.92596461  0.16693967  0.90141877    -0.80800
Co27       Co  0.07534302  0.24156783  0.85266277     1.51500
Co28       Co  0.94222730  0.25637426  0.87195325     1.51700
Co29       Co  0.98193486  0.19729383  0.87214847     1.51600
Co30       Co  0.02996163  0.31389760  0.87393412     1.51500
O31         O  0.00696214  0.25859337  0.84998530    -1.42700
C32         C  0.10778854  0.33371460  0.90367793     1.08900
C33         C  0.88829619  0.18766045  0.90808815     1.09000
C34         C  0.04369182  0.19925633  0.94086462     1.08900
C35         C  0.98201257  0.29612550  0.95335971     1.08900
O36         O  0.84168986  0.08160207  0.17651696    -0.80700
O37         O  0.85987299  0.92207774  0.32614696    -0.80800
O38         O  0.82839917  0.96399567  0.17696544    -0.80800
O39         O  0.80242060  0.02789688  0.29760149    -0.80700
O40         O  0.81738404  0.94361082  0.24639616    -0.80800
O41         O  0.82804023  0.09272568  0.26985981    -0.80800
O42         O  0.84816012  0.98181892  0.36762472    -0.80700
O43         O  0.87022300  0.02708534  0.13805688    -0.80800
C44         C  0.84478384  0.06129333  0.13934911     1.08900
C45         C  0.84627770  0.93951858  0.36402850     1.08800
C46         C  0.80284551  0.94878581  0.20664530     1.09000
C47         C  0.79577188  0.06596705  0.27936500     1.08800
O48         O  0.92424287  0.09512107  0.28640178    -0.80700
O49         O  0.89755071  0.89655784  0.21561496    -0.80800
O50         O  0.94892035  0.00828584  0.20125149    -0.80800
O51         O  0.92730662  0.00127532  0.32447648    -0.80700
O52         O  0.94357317  0.95184452  0.27518111    -0.80800
O53         O  0.93571132  0.07917018  0.19187797    -0.80800
O54         O  0.87874075  0.07443087  0.34033332    -0.80700
O55         O  0.91153025  0.93755089  0.15288415    -0.80800
Co56       Co  0.88252561  0.08341325  0.23236998     1.51500
Co57       Co  0.88010802  0.94877263  0.26011795     1.51700
Co58       Co  0.88928964  0.98451568  0.19115082     1.51600
Co59       Co  0.86447050  0.01259920  0.31103220     1.51500
O60         O  0.87447487  0.01763336  0.24553208    -1.42700
C61         C  0.91046330  0.10070792  0.32658847     1.08900
C62         C  0.91236850  0.89942978  0.17376444     1.09000
C63         C  0.95518965  0.04430935  0.17964446     1.08900
C64         C  0.95539584  0.97696622  0.30589219     1.08900
C65         C  0.03356816  0.00114047  0.51773318     0.01700
C66         C  0.00483048  0.02474310  0.48754045     0.01700
C67         C  0.97275279  0.99884283  0.46487512     0.01700
C68         C  0.95232181  0.96509598  0.49216473     0.01700
C69         C  0.98336704  0.93994397  0.51786433     0.01700
C70         C  0.01402956  0.96558825  0.54222328     0.01700
O71         O  0.10141444  0.81714427  0.62732182    -0.80700
O72         O  0.90207254  0.68729632  0.65242637    -0.80800
O73         O  0.95989029  0.82228569  0.68689877    -0.80800
O74         O  0.03021863  0.69972444  0.70233139    -0.80700
O75         O  0.95326755  0.74859538  0.69775384    -0.80800
O76         O  0.08133379  0.74831001  0.68315456    -0.80800
O77         O  0.96500062  0.64787201  0.65641594    -0.80700
O78         O  0.04861910  0.83801874  0.67099038    -0.80800
C79         C  0.08882563  0.84267206  0.65865550     1.08900
C80         C  0.92176025  0.65024570  0.66276670     1.08800
C81         C  0.95076884  0.78765387  0.71189503     1.09000
C82         C  0.06133028  0.72565677  0.71315067     1.08800
O83         O  0.12129438  0.72472953  0.60490074    -0.80700
O84         O  0.89681575  0.78379824  0.62295215    -0.80800
O85         O  0.03030889  0.83385322  0.57203321    -0.80800
O86         O  0.00157423  0.69009729  0.57240834    -0.80700
O87         O  0.93801093  0.72492156  0.57042932    -0.80800
O88         O  0.05580807  0.76673028  0.55555979    -0.80800
O89         O  0.07636605  0.66618455  0.61979249    -0.80700
O90         O  0.93893576  0.83355937  0.58851190    -0.80800
Co91       Co  0.06800733  0.75608338  0.61890098     1.51500
Co92       Co  0.94549656  0.73537281  0.63508080     1.51700
Co93       Co  0.99508730  0.82905190  0.62968546     1.51600
Co94       Co  0.01453012  0.69599462  0.63726302     1.51500
O95         O  0.00377165  0.76443170  0.62807246    -1.42700
C96         C  0.11404240  0.68290098  0.60432043     1.08900
C97         C  0.89981313  0.81818295  0.59589710     1.09000
C98         C  0.03931245  0.80371147  0.54358521     1.08900
C99         C  0.96834641  0.70537133  0.55027869     1.08900
O100        O  0.18255417  0.84626889  0.09139674    -0.80700
O101        O  0.32476653  0.85536208  0.90856165    -0.80800
O102        O  0.19714303  0.80038416  0.98591896    -0.80800
O103        O  0.31619322  0.79019271  0.05395108    -0.80700
O104        O  0.25796183  0.80571467  0.94668090    -0.80800
O105        O  0.26371579  0.83818573  0.04798910    -0.80800
O106        O  0.34750257  0.81529983  0.96785696    -0.80700
O107        O  0.14753923  0.85992467  0.02735799    -0.80800
C108        C  0.14722448  0.84311177  0.06783556     1.08900
C109        C  0.35236581  0.82627282  0.92551912     1.08800
C110        C  0.22816978  0.78202649  0.96613141     1.09000
C111        C  0.27866785  0.80121929  0.06679055     1.08800
O112        O  0.28858741  0.92887489  0.08480524    -0.80700
O113        O  0.22484064  0.89208401  0.90294765    -0.80800
O114        O  0.20613562  0.92888888  0.98349283    -0.80800
O115        O  0.34934174  0.90672840  0.99996403    -0.80700
O116        O  0.29325741  0.93099436  0.95646732    -0.80800
O117        O  0.19632812  0.93611784  0.05606574    -0.80800
O118        O  0.33980280  0.87803258  0.09025093    -0.80700
O119        O  0.15946035  0.87207934  0.93095769    -0.80800
Co120      Co  0.23595625  0.88701597  0.08244067     1.51500
Co121      Co  0.27392198  0.86932932  0.95168661     1.51700
Co122      Co  0.20146196  0.86464783  0.98377180     1.51600
Co123      Co  0.33092482  0.84886906  0.02653908     1.51500
O124        O  0.25872279  0.86454829  0.01934333    -1.42700
C125        C  0.32369761  0.91439563  0.10481054     1.08900
C126        C  0.18135882  0.89055748  0.89832945     1.09000
C127        C  0.19064721  0.95006204  0.01533440     1.08900
C128        C  0.32959042  0.93738957  0.97706238     1.08900
O129        O  0.96789750  0.86708707  0.12535321    -0.80700
O130        O  0.03212293  0.63920416  0.15607463    -0.80800
O131        O  0.91335428  0.72893465  0.16789178    -0.80800
O132        O  0.05569141  0.74368701  0.17922205    -0.80700
O133        O  0.97878098  0.70594749  0.19434851    -0.80800
O134        O  0.02039892  0.80793500  0.18063519    -0.80800
O135        O  0.09230637  0.67795070  0.13246697    -0.80700
O136        O  0.91735065  0.82024044  0.15149674    -0.80800
C137        C  0.93321643  0.86005261  0.14900981     1.08900
C138        C  0.07517442  0.64310020  0.15346298     1.08800
C139        C  0.94096223  0.72280299  0.20039017     1.09000
C140        C  0.03803106  0.77459343  0.20078595     1.08800
O141        O  0.07069883  0.84251691  0.09605034    -0.80700
O142        O  0.93461161  0.65726809  0.12034830    -0.80800
O143        O  0.92729182  0.79964091  0.05408596    -0.80800
O144        O  0.05235485  0.72143208  0.04939609    -0.80700
O145        O  0.00435102  0.67167555  0.07062318    -0.80800
O146        O  0.00074485  0.80866010  0.05105609    -0.80800
O147        O  0.10467910  0.77740234  0.09780853    -0.80700
O148        O  0.91281840  0.71075875  0.07300741    -0.80800
Co149      Co  0.01084324  0.81755465  0.11527324     1.51500
Co150      Co  0.99495497  0.69062988  0.13278375     1.51700
Co151      Co  0.92191506  0.76421736  0.11134585     1.51600
Co152      Co  0.05339733  0.73238013  0.11444680     1.51500
O153        O  0.98915667  0.75540654  0.11131497    -1.42700
C154        C  0.10538031  0.81974563  0.08833578     1.08900
C155        C  0.90941342  0.67032000  0.08682994     1.09000
C156        C  0.96258957  0.80980698  0.03232949     1.08900
C157        C  0.02591900  0.69101380  0.03950334     1.08900
C158        C  0.22519494  0.82680072  0.26407506     0.01700
C159        C  0.19751601  0.80644145  0.23342870     0.01700
C160        C  0.17778196  0.76763012  0.25218073     0.01700
C161        C  0.20515610  0.73872632  0.27922140     0.01700
C162        C  0.23887583  0.76038949  0.30447453     0.01700
C163        C  0.25701968  0.79898970  0.28523752     0.01700
O164        O  0.16538338  0.67421312  0.54415879    -0.80700
O165        O  0.34146669  0.66261912  0.46192000    -0.80800
O166        O  0.24399159  0.65735505  0.58839999    -0.80800
O167        O  0.26012932  0.69460990  0.44658782    -0.80700
O168        O  0.29363629  0.68912011  0.54244609    -0.80800
O169        O  0.18736510  0.69959243  0.45903268    -0.80800
O170        O  0.31616216  0.64369873  0.39513001    -0.80700
O171        O  0.16059724  0.61710231  0.59013333    -0.80800
C172        C  0.14768710  0.65618305  0.57907485     1.08900
C173        C  0.34746793  0.66181723  0.41812537     1.08800
C174        C  0.26891291  0.68971287  0.57671008     1.09000
C175        C  0.22538970  0.71735461  0.45262007     1.08800
O176        O  0.16180241  0.60987105  0.42797011    -0.80700
O177        O  0.31658846  0.60039190  0.58042704    -0.80800
O178        O  0.20988862  0.54642082  0.53552837    -0.80800
O179        O  0.27122499  0.56743731  0.43344900    -0.80700
O180        O  0.31497470  0.57185198  0.49307510    -0.80800
O181        O  0.15007048  0.58324330  0.51305447    -0.80800
O182        O  0.21979394  0.62822202  0.38744841    -0.80700
O183        O  0.25652873  0.56917093  0.60938146    -0.80800
Co184      Co  0.17084720  0.64137857  0.48642495     1.51500
Co185      Co  0.30380039  0.63124516  0.51599356     1.51700
Co186      Co  0.22111685  0.60235848  0.56311477     1.51600
Co187      Co  0.26624506  0.63097895  0.43923379     1.51500
O188        O  0.23569232  0.62305220  0.49888905    -1.42700
C189        C  0.18101245  0.61062113  0.39026448     1.08900
C190        C  0.29799102  0.57574523  0.61176313     1.09000
C191        C  0.17267165  0.54732035  0.51593939     1.08900
C192        C  0.29639743  0.54919655  0.46251995     1.08900
C193        C  0.24084268  0.77438259  0.79998307     0.01700
C194        C  0.21850287  0.74548046  0.77077004     0.01700
C195        C  0.24379419  0.71027593  0.75315918     0.01700
C196        C  0.27940134  0.69399983  0.78147744     0.01700
C197        C  0.30281836  0.72723997  0.80446663     0.01700
C198        C  0.27332131  0.75368113  0.82836646     0.01700
O199        O  0.43178611  0.82402600  0.90851224    -0.80700
O200        O  0.57713054  0.66861580  0.89931921    -0.80800
O201        O  0.42704166  0.70735900  0.92202330    -0.80800
O202        O  0.54908900  0.76989098  0.95412156    -0.80700
O203        O  0.49186569  0.67846312  0.93695530    -0.80800
O204        O  0.52191842  0.83453562  0.92674958    -0.80800
O205        O  0.61909783  0.72869471  0.91297279    -0.80700
O206        O  0.39251371  0.77429554  0.87212575    -0.80800
C207        C  0.39367866  0.80724777  0.89962861     1.08900
C208        C  0.61478288  0.68655546  0.91481909     1.08800
C209        C  0.45095483  0.68133987  0.94551183     1.09000
C210        C  0.53086310  0.80700386  0.95973033     1.08800
O211        O  0.53953445  0.83431994  0.82830284    -0.80700
O212        O  0.47644849  0.63548139  0.85130487    -0.80800
O213        O  0.46027210  0.74885001  0.80043970    -0.80800
O214        O  0.58001087  0.74432880  0.83080659    -0.80700
O215        O  0.52845057  0.69803667  0.81127317    -0.80800
O216        O  0.45121346  0.81942125  0.81295738    -0.80800
O217        O  0.59344273  0.81561432  0.87513848    -0.80700
O218        O  0.41363240  0.67404156  0.83607258    -0.80800
Co219      Co  0.48725063  0.82469467  0.86968822     1.51500
Co220      Co  0.51092079  0.69100651  0.87454137     1.51700
Co221      Co  0.44501502  0.72812483  0.86140570     1.51600
Co222      Co  0.56374434  0.75476280  0.89306134     1.51500
O223        O  0.49972916  0.75958026  0.88035296    -1.42700
C224        C  0.58037607  0.83745300  0.83923336     1.08900
C225        C  0.43610246  0.63716479  0.83358323     1.09000
C226        C  0.44794144  0.78687106  0.78687495     1.08900
C227        C  0.56045406  0.72269702  0.80105099     1.08900
C228        C  0.73994023  0.20652810  0.80398501     0.01700
C229        C  0.77221388  0.23813932  0.78794831     0.01700
C230        C  0.75538166  0.26840942  0.75409320     0.01700
C231        C  0.72503844  0.25064035  0.72189237     0.01700
C232        C  0.69693453  0.21693127  0.73873311     0.01700
C233        C  0.71896263  0.18615829  0.76775707     0.01700
O234        O  0.89550551  0.42629890  0.83681277    -0.80700
O235        O  0.89241604  0.57337600  0.66352298    -0.80800
O236        O  0.94403614  0.45916031  0.71462725    -0.80800
O237        O  0.93797938  0.56156076  0.76874134    -0.80700
O238        O  0.91067284  0.48719249  0.65291228    -0.80800
O239        O  0.93751040  0.49530003  0.80180708    -0.80800
O240        O  0.87760275  0.61132014  0.72278172    -0.80700
O241        O  0.91546621  0.39214499  0.77545467    -0.80800
C242        C  0.91468874  0.39295881  0.81859634     1.08900
C243        C  0.89532579  0.60985341  0.68385002     1.08800
C244        C  0.94564164  0.48061183  0.67758558     1.09000
C245        C  0.95871450  0.52843532  0.78457629     1.08800
O246        O  0.85455977  0.53305457  0.85095268    -0.80700
O247        O  0.81750535  0.45901908  0.66464349    -0.80800
O248        O  0.82676652  0.41762756  0.75011749    -0.80800
O249        O  0.80908221  0.55483015  0.76576232    -0.80700
O250        O  0.79902805  0.54608570  0.69155172    -0.80800
O251        O  0.81116624  0.46321556  0.80416528    -0.80800
O252        O  0.86903168  0.59914482  0.82004212    -0.80700
O253        O  0.86943454  0.40816783  0.67067744    -0.80800
Co254      Co  0.87246875  0.48568583  0.80518663     1.51500
Co255      Co  0.85499779  0.51589350  0.67229522     1.51700
Co256      Co  0.88639445  0.43574866  0.73044214     1.51600
Co257      Co  0.87361545  0.55827153  0.76853456     1.51500
O258        O  0.87351510  0.50106945  0.73704246    -1.42700
C259        C  0.85583207  0.57570264  0.85433653     1.08900
C260        C  0.83255825  0.42128191  0.65278646     1.09000
C261        C  0.80025259  0.43239571  0.77872815     1.08900
C262        C  0.78428107  0.55486307  0.73074504     1.08900
O263        O  0.97621819  0.14222564  0.35532609    -0.80700
O264        O  0.01232379  0.37767972  0.35522031    -0.80800
O265        O  0.93938916  0.24354066  0.33142133    -0.80800
O266        O  0.08384406  0.25256791  0.35157012    -0.80700
O267        O  0.98136780  0.30253808  0.31560170    -0.80800
O268        O  0.02441847  0.21873410  0.32298331    -0.80800
O269        O  0.07432878  0.34220072  0.37670175    -0.80700
O270        O  0.90985885  0.16908055  0.37546086    -0.80800
C271        C  0.93276519  0.13841722  0.35517656     1.08900
C272        C  0.05509392  0.37736163  0.35711758     1.08800
C273        C  0.95683716  0.27099935  0.30343671     1.09000
C274        C  0.05861980  0.24285881  0.31830859     1.08800
O275        O  0.07108190  0.17029903  0.39504029    -0.80700
O276        O  0.92704012  0.33645822  0.39166771    -0.80800
O277        O  0.94194487  0.21064440  0.45991174    -0.80800
O278        O  0.05647702  0.30288921  0.46968599    -0.80700
O279        O  0.99892535  0.33893498  0.43914644    -0.80800
O280        O  0.99856764  0.17093211  0.44349402    -0.80800
O281        O  0.08557207  0.21865164  0.44673167    -0.80700
O282        O  0.89534534  0.27160144  0.41208775    -0.80800
Co283      Co  0.00783389  0.19619501  0.38235458     1.51500
Co284      Co  0.99234753  0.31925349  0.37834537     1.51700
Co285      Co  0.94343567  0.22670684  0.39555322     1.51600
Co286      Co  0.06957965  0.27676022  0.41118460     1.51500
O287        O  0.00200589  0.25949396  0.40497432    -1.42700
C288        C  0.09452414  0.18133136  0.42964078     1.08900
C289        C  0.89466175  0.31445249  0.41032818     1.09000
C290        C  0.97107646  0.18325956  0.47210148     1.08900
C291        C  0.02390025  0.32917067  0.47259670     1.08900
C292        C  0.23316604  0.30332836  0.22677050     0.01700
C293        C  0.21102943  0.28020994  0.26198963     0.01700
C294        C  0.23481152  0.24630196  0.28491195     0.01700
C295        C  0.26485628  0.22262009  0.25938261     0.01700
C296        C  0.28753554  0.24655443  0.22530579     0.01700
C297        C  0.26188582  0.27826803  0.20065174     0.01700
O298        O  0.14640903  0.37370374  0.96409054    -0.80700
O299        O  0.36372087  0.37177673  0.04631847    -0.80800
O300        O  0.26857432  0.31297559  0.96379372    -0.80800
O301        O  0.22198010  0.33255652  0.08473068    -0.80700
O302        O  0.33622513  0.34431207  0.96185845    -0.80800
O303        O  0.20066996  0.32059999  0.01620691    -0.80800
O304        O  0.31477974  0.32839571  0.07899749    -0.80700
O305        O  0.18964477  0.34407669  0.91316474    -0.80800
C306        C  0.14999474  0.35177003  0.92754828     1.08900
C307        C  0.35551857  0.33716107  0.07099046     1.08800
C308        C  0.31003779  0.31121806  0.95536395     1.09000
C309        C  0.21194178  0.30567333  0.05467826     1.08800
O310        O  0.16317044  0.39810137  0.07182400    -0.80700
O311        O  0.31508044  0.43574765  0.93322437    -0.80800
O312        O  0.21846838  0.43008239  0.93225052    -0.80800
O313        O  0.31477895  0.42322149  0.09267662    -0.80700
O314        O  0.31566735  0.45593182  0.02547732    -0.80800
O315        O  0.20084257  0.44913874  0.99907568    -0.80800
O316        O  0.22551452  0.42726350  0.09501651    -0.80700
O317        O  0.28163551  0.38374918  0.89638325    -0.80800
Co318      Co  0.19465466  0.38610694  0.01339869     1.51500
Co319      Co  0.32761043  0.40149449  0.99311222     1.51700
Co320      Co  0.23977757  0.36966283  0.95066128     1.51600
Co321      Co  0.26872597  0.37778380  0.08203472     1.51500
O322        O  0.26374076  0.38772542  0.01135749    -1.42700
C323        C  0.18339901  0.42390991  0.09824808     1.08900
C324        C  0.30749732  0.41783025  0.89535717     1.09000
C325        C  0.20729955  0.45991149  0.95842494     1.08900
C326        C  0.32341002  0.45682076  0.06763799     1.08900
C327        C  0.26886981  0.23746115  0.73620329     0.01700
C328        C  0.23402751  0.24195173  0.76729335     0.01700
C329        C  0.22769570  0.28448294  0.78428982     0.01700
C330        C  0.26740051  0.30737345  0.79368651     0.01700
C331        C  0.29567273  0.30877791  0.75565385     0.01700
C332        C  0.30604587  0.26578471  0.74198451     0.01700
O333        O  0.57956999  0.33139732  0.61366140    -0.80700
O334        O  0.42948312  0.15488509  0.62694725    -0.80800
O335        O  0.54994436  0.21122645  0.55361343    -0.80800
O336        O  0.42488522  0.29689686  0.56544294    -0.80700
O337        O  0.49359831  0.17044266  0.57054354    -0.80800
O338        O  0.49071155  0.33154419  0.57247618    -0.80800
O339        O  0.40457520  0.21211437  0.58717286    -0.80700
O340        O  0.60251539  0.26446293  0.59674306    -0.80800
C341        C  0.60873032  0.30681932  0.59652188     1.08900
C342        C  0.40066310  0.17090936  0.59795444     1.08800
C343        C  0.51835583  0.18769559  0.54098500     1.09000
C344        C  0.45451781  0.32330697  0.55093918     1.08800
O345        O  0.48708394  0.36618683  0.65492123    -0.80700
O346        O  0.52953325  0.12996786  0.65365420    -0.80800
O347        O  0.56140380  0.23427706  0.68225741    -0.80800
O348        O  0.42248781  0.23357495  0.68218074    -0.80700
O349        O  0.48505105  0.19623632  0.69749023    -0.80800
O350        O  0.52519450  0.29654138  0.69562843    -0.80800
O351        O  0.42599214  0.32626725  0.65806346    -0.80700
O352        O  0.59249982  0.16465274  0.63343767    -0.80800
Co353      Co  0.51748683  0.31264164  0.63115362     1.51500
Co354      Co  0.49290438  0.18525896  0.63416180     1.51700
Co355      Co  0.55299142  0.22072545  0.61861609     1.51600
Co356      Co  0.42518900  0.26536103  0.62319642     1.51500
O357        O  0.49227456  0.25278674  0.61588903    -1.42700
C358        C  0.44682919  0.36292457  0.66699325     1.08900
C359        C  0.57295307  0.12954908  0.65198872     1.09000
C360        C  0.54789897  0.26328892  0.70906239     1.08900
C361        C  0.44958794  0.21388263  0.70966689     1.08900
O362        O  0.34031717  0.98305706  0.14476095    -0.80700
O363        O  0.35864648  0.03380842  0.36700553    -0.80800
O364        O  0.30357088  0.96024380  0.24404184    -0.80800
O365        O  0.32286267  0.10392517  0.23927570    -0.80700
O366        O  0.30543175  0.98378173  0.31389233    -0.80800
O367        O  0.30045679  0.04235477  0.20612592    -0.80800
O368        O  0.34625697  0.09649470  0.32912431    -0.80700
O369        O  0.36044538  0.92118203  0.18216927    -0.80800
C370        C  0.34349649  0.94014820  0.14577057     1.08900
C371        C  0.34421881  0.07380192  0.36600459     1.08800
C372        C  0.28382479  0.97080492  0.27996767     1.09000
C373        C  0.29216849  0.07645843  0.22755626     1.08800
O374        O  0.37233687  0.09228094  0.15890029    -0.80700
O375        O  0.37822193  0.93990208  0.35542484    -0.80800
O376        O  0.43291810  0.96526299  0.22989986    -0.80800
O377        O  0.43805804  0.07535098  0.30215168    -0.80700
O378        O  0.43367364  0.00166703  0.31539779    -0.80800
O379        O  0.42575688  0.02298187  0.18480558    -0.80800
O380        O  0.41796177  0.10167997  0.21557446    -0.80700
O381        O  0.38636163  0.91651550  0.28558167    -0.80800
Co382      Co  0.36097595  0.03123601  0.18949600     1.51500
Co383      Co  0.36975295  0.99169172  0.31483804     1.51700
Co384      Co  0.36843849  0.96401509  0.23411352     1.51600
Co385      Co  0.38063097  0.09028453  0.27078500     1.51500
O386        O  0.36744901  0.02585625  0.25906120    -1.42700
C387        C  0.40488037  0.11379960  0.17603717     1.08900
C388        C  0.39023486  0.90948601  0.32919990     1.09000
C389        C  0.45031312  0.99651812  0.20780567     1.08900
C390        C  0.45592804  0.03762193  0.31184157     1.08900
C391        C  0.48218091  0.03911385  0.52012679     0.01700
C392        C  0.45797390  0.01529043  0.48792467     0.01700
C393        C  0.48308169  0.98745135  0.46103899     0.01700
C394        C  0.51736261  0.96420934  0.48396027     0.01700
C395        C  0.54149354  0.98772602  0.51604520     0.01700
C396        C  0.51687076  0.01592742  0.54269184     0.01700
O397        O  0.40706061  0.71638454  0.42012922    -0.80700
O398        O  0.59653498  0.78311882  0.38186390    -0.80800
O399        O  0.48992203  0.68169980  0.40846255    -0.80800
O400        O  0.46971797  0.84977485  0.42877308    -0.80700
O401        O  0.54445522  0.72445695  0.42836265    -0.80800
O402        O  0.43662122  0.78959776  0.45640843    -0.80800
O403        O  0.55773836  0.83534253  0.41234150    -0.80700
O404        O  0.41048980  0.67976909  0.35995020    -0.80800
C405        C  0.38969529  0.68646079  0.39721151     1.08900
C406        C  0.59548046  0.81678014  0.40775158     1.08800
C407        C  0.51509934  0.69685377  0.43898315     1.09000
C408        C  0.46305897  0.82154671  0.46119216     1.08800
O409        O  0.40001647  0.84446897  0.38135660    -0.80700
O410        O  0.57534284  0.68977790  0.34256001    -0.80800
O411        O  0.45213713  0.74002239  0.29328764    -0.80800
O412        O  0.53643452  0.83595921  0.31652683    -0.80700
O413        O  0.53901156  0.76489036  0.30168760    -0.80800
O414        O  0.39454486  0.76632206  0.33249658    -0.80800
O415        O  0.45032131  0.85643185  0.33090807    -0.80700
O416        O  0.51168243  0.66203309  0.31606957    -0.80800
Co417      Co  0.41480157  0.77831481  0.39587860     1.51500
Co418      Co  0.54076699  0.74327669  0.36516822     1.51700
Co419      Co  0.47457626  0.71101417  0.34918794     1.51600
Co420      Co  0.50187297  0.83945165  0.37190433     1.51500
O421        O  0.48143118  0.77384100  0.37706974    -1.42700
C422        C  0.41380311  0.86771508  0.34768327     1.08900
C423        C  0.55554631  0.66010625  0.31849034     1.09000
C424        C  0.41474356  0.75978140  0.29517332     1.08900
C425        C  0.54703678  0.80513989  0.29100533     1.08900
O426        O  0.59496197  0.87902620  0.76930020    -0.80700
O427        O  0.59150622  0.08493415  0.72070046    -0.80800
O428        O  0.60676046  0.97475256  0.79636909    -0.80800
O429        O  0.56878577  0.00374589  0.69718530    -0.80700
O430        O  0.56048854  0.02856756  0.79642179    -0.80800
O431        O  0.55847619  0.93443911  0.71493111    -0.80800
O432        O  0.62335196  0.06058837  0.65898575    -0.80700
O433        O  0.64736623  0.88373143  0.81919621    -0.80800
C434        C  0.60976319  0.86744008  0.80805677     1.08900
C435        C  0.59857989  0.09030692  0.67767438     1.08800
C436        C  0.57342011  0.99321288  0.81601334     1.09000
C437        C  0.54314234  0.97131733  0.70173272     1.08800
O438        O  0.62444538  0.88656132  0.67278044    -0.80700
O439        O  0.64056022  0.06902934  0.83088898    -0.80800
O440        O  0.71041637  0.95613108  0.78961894    -0.80800
O441        O  0.69712054  0.01021805  0.70275640    -0.80700
O442        O  0.68090334  0.05915268  0.75293090    -0.80800
O443        O  0.68602383  0.90976560  0.73732826    -0.80800
O444        O  0.64576286  0.95499746  0.65070689    -0.80700
O445        O  0.67647511  0.00944495  0.85828451    -0.80800
Co446      Co  0.62239907  0.92418266  0.72564240     1.51500
Co447      Co  0.61925408  0.04216190  0.77050046     1.51700
Co448      Co  0.65922543  0.95024292  0.82964100     1.51600
Co449      Co  0.63337771  0.00484052  0.70104683     1.51500
O450        O  0.63070334  0.97424660  0.76495591    -1.42700
C451        C  0.64308492  0.91198474  0.64278090     1.08900
C452        C  0.66699165  0.05072166  0.86101190     1.09000
C453        C  0.71734667  0.93042978  0.75771665     1.08900
C454        C  0.70893699  0.04094981  0.72729199     1.08900
C455        C  0.49447554  0.01981720  0.06481205     0.01700
C456        C  0.47974209  0.98288881  0.04118101     0.01700
C457        C  0.51413690  0.95886768  0.02216056     0.01700
C458        C  0.55055970  0.98318469  0.00531376     0.01700
C459        C  0.56308826  0.02200538  0.02694615     0.01700
C460        C  0.52647380  0.04620271  0.04206291     0.01700
O461        O  0.38998208  0.26465440  0.08821997    -0.80700
O462        O  0.61887742  0.22142535  0.11087394    -0.80800
O463        O  0.50484458  0.30517298  0.06113663    -0.80800
O464        O  0.48838310  0.15896959  0.06945012    -0.80700
O465        O  0.57298052  0.28009459  0.06226104    -0.80800
O466        O  0.46062580  0.22386815  0.04326022    -0.80800
O467        O  0.57880242  0.16666491  0.08431707    -0.80700
O468        O  0.43134705  0.32367570  0.10520683    -0.80800
C469        C  0.39385332  0.30702938  0.08954792     1.08900
C470        C  0.61641887  0.18648688  0.08701829     1.08800
C471        C  0.53982335  0.29485230  0.04044130     1.09000
C472        C  0.47783438  0.18635718  0.03671577     1.08800
O473        O  0.41894054  0.17379666  0.11778243    -0.80700
O474        O  0.60771161  0.31334876  0.14409082    -0.80800
O475        O  0.48069920  0.29160877  0.18996541    -0.80800
O476        O  0.56350656  0.17234356  0.18043885    -0.80700
O477        O  0.55945668  0.24451770  0.18908845    -0.80800
O478        O  0.43172545  0.24262447  0.16965530    -0.80800
O479        O  0.47221896  0.15556312  0.16594403    -0.80700
O480        O  0.54191643  0.34632275  0.14721456    -0.80800
Co481      Co  0.44691440  0.23632029  0.10560186     1.51500
Co482      Co  0.56704050  0.26427900  0.12640155     1.51700
Co483      Co  0.49526436  0.29783558  0.12591998     1.51600
Co484      Co  0.52456178  0.16649888  0.12541973     1.51500
O485        O  0.51174632  0.23101340  0.11819956    -1.42700
C486        C  0.43282913  0.14899234  0.15111874     1.08900
C487        C  0.58494863  0.34748643  0.15441682     1.09000
C488        C  0.44975402  0.26519667  0.19993695     1.08900
C489        C  0.57624558  0.20740423  0.19992152     1.08900
O490        O  0.16791626  0.14712421  0.42442480    -0.80700
O491        O  0.33164951  0.11980303  0.59023039    -0.80800
O492        O  0.19145201  0.17585456  0.54843294    -0.80800
O493        O  0.28813007  0.19378230  0.48116204    -0.80700
O494        O  0.26246631  0.16987922  0.56618259    -0.80800
O495        O  0.25614253  0.17094558  0.41678278    -0.80800
O496        O  0.36102480  0.15220199  0.52813742    -0.80700
O497        O  0.13452057  0.13641530  0.49004436    -0.80800
C498        C  0.13400947  0.15265066  0.44918416     1.08900
C499        C  0.36363911  0.14437309  0.57145339     1.08800
C500        C  0.22630198  0.19077170  0.56646774     1.09000
C501        C  0.26976475  0.20158828  0.44294184     1.08800
O502        O  0.28092191  0.07564416  0.41545074    -0.80700
O503        O  0.22480423  0.08731068  0.60846942    -0.80800
O504        O  0.18341690  0.05315519  0.51301097    -0.80800
O505        O  0.32444537  0.06984521  0.50087683    -0.80700
O506        O  0.27546935  0.04445936  0.54745057    -0.80800
O507        O  0.19575508  0.05397649  0.43851178    -0.80800
O508        O  0.33186259  0.12480491  0.43074816    -0.80700
O509        O  0.15423507  0.09834848  0.58440822    -0.80800
Co510      Co  0.22616997  0.11190609  0.42726136     1.51500
Co511      Co  0.26978760  0.10776214  0.55566198     1.51700
Co512      Co  0.18800857  0.11441116  0.52994380     1.51600
Co513      Co  0.30536975  0.13282406  0.49531392     1.51500
O514        O  0.24024177  0.11789658  0.49242901    -1.42700
C515        C  0.31868229  0.09243198  0.40632456     1.08900
C516        C  0.18158315  0.08318546  0.61494577     1.09000
C517        C  0.18528666  0.03397332  0.47566745     1.08900
C518        C  0.30437256  0.03714140  0.51912712     1.08900
C519        C  0.77302570  0.80766961  0.27038316     0.01700
C520        C  0.74555187  0.79891519  0.30812387     0.01700
C521        C  0.70848315  0.77272549  0.29612971     0.01700
C522        C  0.72203761  0.73242035  0.27985492     0.01700
C523        C  0.75362506  0.73545824  0.24611403     0.01700
C524        C  0.78647877  0.76882076  0.24851448     0.01700
O525        O  0.59634332  0.58699041  0.31713132    -0.80700
O526        O  0.61690280  0.42469058  0.15721622    -0.80800
O527        O  0.57721205  0.55467919  0.20047745    -0.80800
O528        O  0.58199130  0.43575394  0.29811628    -0.80700
O529        O  0.57551449  0.48374069  0.21167106    -0.80800
O530        O  0.57243273  0.50457566  0.29189088    -0.80800
O531        O  0.61396125  0.38418928  0.22232039    -0.80700
O532        O  0.59756441  0.62682447  0.25337708    -0.80800
C533        C  0.58413274  0.62312858  0.29466117     1.08900
C534        C  0.60686364  0.38720793  0.17866444     1.08800
C535        C  0.56053193  0.51729339  0.19129057     1.09000
C536        C  0.56361498  0.47005516  0.31261657     1.08800
O537        O  0.65138191  0.46526246  0.35116676    -0.80700
O538        O  0.64199317  0.52737570  0.14543580    -0.80800
O539        O  0.68097106  0.59212721  0.27977232    -0.80800
O540        O  0.69657661  0.42581509  0.22998210    -0.80700
O541        O  0.69796716  0.47422733  0.17584243    -0.80800
O542        O  0.68405404  0.54361674  0.33694001    -0.80800
O543        O  0.67150684  0.41067325  0.30890291    -0.80700
O544        O  0.66513914  0.58547916  0.18445927    -0.80800
Co545      Co  0.62850957  0.52259090  0.31493003     1.51500
Co546      Co  0.63689249  0.47732824  0.19565567     1.51700
Co547      Co  0.62923870  0.56933712  0.24210460     1.51600
Co548      Co  0.63711986  0.43844244  0.25577687     1.51500
O549        O  0.65440767  0.50759242  0.25323416    -1.42700
C550        C  0.67089630  0.42762746  0.34758663     1.08900
C551        C  0.66355129  0.56474607  0.14692089     1.09000
C552        C  0.69667870  0.57879099  0.31838252     1.08900
C553        C  0.71745807  0.44507017  0.19834091     1.08900
C554        C  0.74998741  0.25968015  0.18104292     0.01700
C555        C  0.78080586  0.22571879  0.17269828     0.01700
C556        C  0.79389692  0.20319145  0.21281000     0.01700
C557        C  0.81264672  0.23186470  0.24420933     0.01700
C558        C  0.78686804  0.26938662  0.25283568     0.01700
C559        C  0.76565028  0.28913526  0.21397963     0.01700
C560        C  0.74633229  0.73098251  0.79221674     0.01700
C561        C  0.77783269  0.70624906  0.76830111     0.01700
C562        C  0.79820943  0.73029829  0.73213374     0.01700
C563        C  0.76804208  0.75587975  0.70549242     0.01700
C564        C  0.73743201  0.78108747  0.72904779     0.01700
C565        C  0.71786193  0.75883963  0.76615170     0.01700
O566        O  0.16672800  0.95849835  0.85405542    -0.80700
O567        O  0.16826174  0.01425655  0.65824340    -0.80800
O568        O  0.19136604  0.91445795  0.76964546    -0.80800
O569        O  0.17400333  0.08376087  0.77630000    -0.80700
O570        O  0.21432176  0.95494561  0.71361341    -0.80800
O571        O  0.17879873  0.04783384  0.84266964    -0.80800
O572        O  0.14349800  0.07665980  0.68831508    -0.80700
O573        O  0.13116604  0.90122429  0.82889649    -0.80800
C574        C  0.15775895  0.91734286  0.85866525     1.08900
C575        C  0.16360183  0.05676847  0.65650505     1.08800
C576        C  0.22301112  0.92921613  0.74661491     1.09000
C577        C  0.18881964  0.08011025  0.81658254     1.08800
O578        O  0.08676506  0.07045433  0.82799218    -0.80700
O579        O  0.13842789  0.91109113  0.66501099    -0.80800
O580        O  0.06642846  0.94124239  0.76354852    -0.80800
O581        O  0.06271216  0.03467245  0.72527692    -0.80700
O582        O  0.08786782  0.97729871  0.68891414    -0.80800
O583        O  0.07060408  0.97418745  0.82836450    -0.80800
O584        O  0.08924069  0.11200666  0.76420667    -0.80700
O585        O  0.11514169  0.87589798  0.72834211    -0.80800
Co586      Co  0.12694865  0.00995860  0.83195034     1.51500
Co587      Co  0.14957447  0.96605914  0.70469567     1.51700
Co588      Co  0.12935917  0.93074494  0.76378794     1.51600
Co589      Co  0.11950620  0.05666761  0.75119268     1.51500
O590        O  0.14608216  0.99795360  0.76503642    -1.42700
C591        C  0.07666230  0.10774790  0.80543613     1.08900
C592        C  0.11790219  0.87697876  0.68451862     1.09000
C593        C  0.04810685  0.95932608  0.79539784     1.08900
C594        C  0.05681780  0.00273470  0.69938279     1.08900
O595        O  0.76290847  0.39485781  0.62085694    -0.80700
O596        O  0.72722908  0.38031120  0.38978600    -0.80800
O597        O  0.80812609  0.42212051  0.51155640    -0.80800
O598        O  0.65536186  0.41280350  0.51932381    -0.80700
O599        O  0.77956290  0.43046744  0.44408959    -0.80800
O600        O  0.71932729  0.43732276  0.54997286    -0.80800
O601        O  0.67194708  0.40705427  0.42811396    -0.80700
O602        O  0.82485734  0.37464183  0.58490181    -0.80800
C603        C  0.80574291  0.39423367  0.61868005     1.08900
C604        C  0.69124776  0.40348601  0.39035614     1.08800
C605        C  0.79504688  0.44725530  0.47925497     1.09000
C606        C  0.67865855  0.44192992  0.54014739     1.08800
O607        O  0.67260291  0.35966434  0.58801540    -0.80700
O608        O  0.82218824  0.35372995  0.40739281    -0.80800
O609        O  0.79247593  0.29381818  0.53203820    -0.80800
O610        O  0.68238002  0.31121519  0.43788545    -0.80700
O611        O  0.75534301  0.30325954  0.44739480    -0.80800
O612        O  0.74569982  0.31498013  0.58196589    -0.80800
O613        O  0.65643576  0.31650110  0.53150376    -0.80700
O614        O  0.85242096  0.34142307  0.47600916    -0.80800
Co615      Co  0.73590660  0.37704137  0.56399175     1.51500
Co616      Co  0.76941403  0.36598278  0.44510782     1.51700
Co617      Co  0.79954664  0.35800547  0.51973484     1.51600
Co618      Co  0.66955153  0.36125487  0.48050538     1.51500
O619        O  0.73305856  0.36656956  0.49914807    -1.42700
C620        C  0.64847700  0.32829186  0.57159922     1.08900
C621        C  0.85494662  0.33872915  0.43193026     1.09000
C622        C  0.76597282  0.28441207  0.56326933     1.08900
C623        C  0.71945469  0.29281144  0.42802397     1.08900
C624        C  0.01844135  0.54040351  0.46638102     0.01700
C625        C  0.99495151  0.56081137  0.50001695     0.01700
C626        C  0.96414437  0.53389777  0.52338221     0.01700
C627        C  0.94030375  0.50350074  0.49743595     0.01700
C628        C  0.96357609  0.48294653  0.46293014     0.01700
C629        C  0.99303048  0.51174606  0.43997891     0.01700
O630        O  0.84328169  0.61865254  0.07690467    -0.80700
O631        O  0.68956156  0.65581256  0.91099351    -0.80800
O632        O  0.80739918  0.69330233  0.97724421    -0.80800
O633        O  0.71163842  0.67654526  0.04450286    -0.80700
O634        O  0.78070252  0.67406486  0.91027892    -0.80800
O635        O  0.78164719  0.66390633  0.05922955    -0.80800
O636        O  0.65638476  0.64623236  0.97646653    -0.80700
O637        O  0.87861465  0.64712959  0.01640400    -0.80800
C638        C  0.87692028  0.64142448  0.05939200     1.08900
C639        C  0.65503337  0.65987683  0.93488832     1.08800
C640        C  0.78772667  0.70308863  0.94038154     1.09000
C641        C  0.74643171  0.68413116  0.06719428     1.08800
O642        O  0.73051700  0.58096607  0.09933715    -0.80700
O643        O  0.79671191  0.57820762  0.90688323    -0.80800
O644        O  0.84142885  0.56861177  0.99065868    -0.80800
O645        O  0.69937854  0.55716155  0.99655725    -0.80700
O646        O  0.70676845  0.56449276  0.92168749    -0.80800
O647        O  0.79427271  0.53888595  0.03807318    -0.80800
O648        O  0.66490692  0.60187906  0.07092091    -0.80700
O649        O  0.84922353  0.62567535  0.92096667    -0.80800
Co650      Co  0.77881128  0.60054358  0.04940574     1.51500
Co651      Co  0.74504747  0.61763735  0.91635412     1.51700
Co652      Co  0.82342750  0.63145883  0.98657100     1.51600
Co653      Co  0.70497970  0.61722024  0.01926481     1.51500
O654        O  0.75886159  0.61887275  0.98299577    -1.42700
C655        C  0.68726786  0.58388927  0.10383920     1.08900
C656        C  0.83383654  0.59493261  0.89577850     1.09000
C657        C  0.82424375  0.53464839  0.00959378     1.08900
C658        C  0.68735624  0.54899245  0.95670033     1.08900
C659        C  0.51935557  0.47021456  0.00937130     0.01700
C660        C  0.51533730  0.50325018  0.97492871     0.01700
C661        C  0.47425832  0.51099785  0.95407648     0.01700
C662        C  0.44924340  0.47209090  0.94769131     0.01700
C663        C  0.44686348  0.44690187  0.98906520     0.01700
C664        C  0.49012013  0.43420990  0.00444000     0.01700
O665        O  0.85135485  0.12381291  0.94604138    -0.80700
O666        O  0.65453245  0.12660151  0.04843044    -0.80800
O667        O  0.72015284  0.19387543  0.95563018    -0.80800
O668        O  0.78739365  0.19477920  0.03524545    -0.80700
O669        O  0.66083883  0.15065795  0.95925701    -0.80800
O670        O  0.84565950  0.14974277  0.03119285    -0.80800
O671        O  0.69439988  0.18552525  0.05591535    -0.80700
O672        O  0.81143597  0.18286094  0.93781159    -0.80800
C673        C  0.84860029  0.16390479  0.93161623     1.08900
C674        C  0.65713148  0.16601926  0.06247658     1.08800
C675        C  0.67870173  0.18885641  0.95040288     1.09000
C676        C  0.82934174  0.18863549  0.03600980     1.08800
O677        O  0.81255964  0.05995995  0.06067173    -0.80700
O678        O  0.69519879  0.05887560  0.94044707    -0.80800
O679        O  0.78650163  0.09401863  0.90593781    -0.80800
O680        O  0.71801998  0.09523115  0.09249416    -0.80700
O681        O  0.71339557  0.05143843  0.03429662    -0.80800
O682        O  0.79242401  0.04867540  0.96630341    -0.80800
O683        O  0.80530409  0.12019799  0.09671740    -0.80700
O684        O  0.70018447  0.11718785  0.89776876    -0.80800
Co685      Co  0.81812403  0.09648232  0.00111296     1.51500
Co686      Co  0.68742194  0.09789304  0.99554611     1.51700
Co687      Co  0.75450836  0.14628627  0.93089470     1.51600
Co688      Co  0.75112824  0.14761749  0.06286850     1.51500
O689        O  0.75283802  0.12197060  0.99780171    -1.42700
C690        C  0.81940291  0.08054223  0.09694814     1.08900
C691        C  0.68813118  0.07672162  0.90142194     1.09000
C692        C  0.79417872  0.05538366  0.92371032     1.08900
C693        C  0.71049546  0.05692090  0.07634191     1.08900
O694        O  0.30712417  0.54683323  0.69018389    -0.80700
O695        O  0.31217619  0.43857058  0.81238327    -0.80800
O696        O  0.35000185  0.45647058  0.65803244    -0.80800
O697        O  0.34534068  0.53476828  0.84185027    -0.80700
O698        O  0.30508499  0.45431552  0.71634013    -0.80800
O699        O  0.30060442  0.53170708  0.78307882    -0.80800
O700        O  0.37047072  0.45093414  0.85344532    -0.80700
O701        O  0.36526921  0.54467644  0.64863347    -0.80800
C702        C  0.32446600  0.55469627  0.65187425     1.08900
C703        C  0.33048252  0.43669539  0.85153591     1.08800
C704        C  0.31209878  0.44674081  0.67528570     1.09000
C705        C  0.30624466  0.53866059  0.82438066     1.08800
O706        O  0.37415563  0.59682304  0.79654243    -0.80700
O707        O  0.38396815  0.39762517  0.70627118    -0.80800
O708        O  0.44347752  0.53568484  0.70833963    -0.80800
O709        O  0.44598316  0.46747584  0.79129903    -0.80700
O710        O  0.40381869  0.40743989  0.79361785    -0.80800
O711        O  0.39460090  0.59042679  0.70868001    -0.80800
O712        O  0.43501450  0.55987015  0.80500004    -0.80700
O713        O  0.44057082  0.44081102  0.69509802    -0.80800
Co714      Co  0.34527673  0.56032591  0.74504737     1.51500
Co715      Co  0.35170603  0.43113995  0.75672798     1.51700
Co716      Co  0.39915237  0.49472587  0.68427863     1.51600
Co717      Co  0.39866509  0.50289533  0.81624767     1.51500
O718        O  0.37404031  0.49717430  0.75042641    -1.42700
C719        C  0.41461991  0.59624038  0.81031813     1.08900
C720        C  0.42333108  0.40216667  0.69110984     1.09000
C721        C  0.43401207  0.57630816  0.70087689     1.08900
C722        C  0.44187194  0.42601220  0.79884299     1.08900
O723        O  0.84686566  0.90911454  0.44268844    -0.80700
O724        O  0.65714760  0.86081762  0.57651351    -0.80800
O725        O  0.72222123  0.93663963  0.45760877    -0.80800
O726        O  0.79771582  0.92375475  0.58448764    -0.80700
O727        O  0.67099050  0.91536499  0.50546350    -0.80800
O728        O  0.79440048  0.94290132  0.51169566    -0.76000
O729        O  0.70953082  0.90589637  0.59793656    -0.80700
O730        O  0.78447135  0.89752427  0.40221645    -0.80800
C731        C  0.82575289  0.91229897  0.40442552     1.08900
C732        C  0.66997734  0.89192875  0.60311745     1.08800
C733        C  0.69262984  0.94600381  0.48539678     1.09000
C734        C  0.80277790  0.95251525  0.55205947     1.08800
O735        O  0.85865845  0.87148774  0.54153441    -0.80700
O736        O  0.63190586  0.83354947  0.48050976    -0.80800
O737        O  0.75712151  0.81296528  0.44939275    -0.80800
O738        O  0.72768748  0.80956094  0.58927781    -0.80700
O739        O  0.70320055  0.79070154  0.52188429    -0.80800
O740        O  0.82478726  0.82466303  0.47395274    -0.80800
O741        O  0.81856401  0.82821953  0.58599165    -0.80700
O742        O  0.67395543  0.84960662  0.42070996    -0.80800
Co743      Co  0.80857683  0.88409739  0.49196154     1.51500
Co744      Co  0.68692588  0.85261033  0.51217794     1.51700
Co745      Co  0.73631744  0.87353001  0.45018328     1.51600
Co746      Co  0.76247934  0.86678045  0.58606836     1.51500
O747        O  0.75150158  0.86688571  0.51973091    -1.42700
C748        C  0.85719100  0.84057616  0.57309504     1.08900
C749        C  0.63626253  0.83347726  0.43734191     1.09000
C750        C  0.79682047  0.79992723  0.45576558     1.08900
C751        C  0.72231139  0.78074176  0.55885645     1.08900
O752        O  0.11728076  0.61087088  0.21786425    -0.80700
O753        O  0.07066554  0.42203825  0.28839630    -0.80800
O754        O  0.08016573  0.49700146  0.15804374    -0.80800
O755        O  0.06427790  0.51372658  0.31846797    -0.80700
O756        O  0.04886781  0.44761718  0.20355505    -0.80800
O757        O  0.06285497  0.57442863  0.27589375    -0.80800
O758        O  0.11270717  0.43948516  0.34582425    -0.80700
O759        O  0.11137001  0.57154939  0.15617674    -0.80800
C760        C  0.10404606  0.60711367  0.17661074     1.08900
C761        C  0.08176455  0.41445623  0.32982591     1.08800
C762        C  0.04691516  0.47397221  0.17018818     1.09000
C763        C  0.04253762  0.54505905  0.29838490     1.08800
O764        O  0.14354256  0.60841730  0.31525066    -0.80700
O765        O  0.14082094  0.43502224  0.16752004    -0.80800
O766        O  0.19724628  0.54675016  0.19330335    -0.80800
O767        O  0.18904274  0.47958162  0.29723890    -0.80700
O768        O  0.16544995  0.42300463  0.25870171    -0.80800
O769        O  0.18967008  0.55462922  0.26506978    -0.80800
O770        O  0.15310073  0.54390234  0.35331580    -0.80700
O771        O  0.16215066  0.49482646  0.12538173    -0.80800
Co772      Co  0.12599528  0.56428604  0.27009772     1.51500
Co773      Co  0.10700366  0.43815378  0.23132308     1.51700
Co774      Co  0.13896808  0.51488430  0.18077577     1.51600
Co775      Co  0.12743167  0.49736954  0.30818756     1.51500
O776        O  0.11293264  0.50751421  0.24098053    -1.42700
C777        C  0.15825248  0.58705832  0.35080945     1.08900
C778        C  0.15964364  0.45256433  0.13109648     1.09000
C779        C  0.20943976  0.56456033  0.22958921     1.08900
C780        C  0.19670703  0.44760344  0.27262699     1.08900
C781        C  0.46785235  0.54947239  0.49067705     0.01700
C782        C  0.43392411  0.53151621  0.51772194     0.01700
C783        C  0.45040876  0.51452972  0.55972931     0.01700
C784        C  0.48377405  0.48203043  0.55353387     0.01700
C785        C  0.51829457  0.49860938  0.52629918     0.01700
C786        C  0.50332803  0.52065556  0.48610906     0.01700
C787        C  0.99706633  0.48514694  0.92260374     0.01700
C788        C  0.02648180  0.45678682  0.94641607     0.01700
C789        C  0.05615567  0.48054607  0.97427268     0.01700
C790        C  0.03619630  0.51271315  0.00095269     0.01700
C791        C  0.00112155  0.53715183  0.98026858     0.01700
C792        C  0.97380064  0.51426268  0.95000228     0.01700
C793        C  0.00661327  0.52887974  0.07801840    -0.21900
C794        C  0.03285942  0.50252217  0.05022523    -0.10000
C795        C  0.04638579  0.46047832  0.06746054     0.28900
C796        C  0.02652246  0.44190067  0.10570733    -0.21900
C797        C  0.01156334  0.47146766  0.13717669    -0.10000
C798        C  0.99564507  0.51312354  0.12150811     0.28900
F799        F  0.97760229  0.54132881  0.15084611    -0.20500
H800        H  0.99505436  0.56136955  0.06647664     0.17300
H801        H  0.03823005  0.40933924  0.11736298     0.17300
F802        F  0.08284457  0.44038070  0.05148812    -0.20500
C803        C  0.43747531  0.61652792  0.63142184    -0.21900
C804        C  0.46279565  0.60135201  0.66864712    -0.10000
C805        C  0.50151799  0.57822821  0.65770131     0.28900
C806        C  0.49798449  0.54849589  0.62244353    -0.21900
C807        C  0.46014756  0.54983606  0.59341222    -0.10000
C808        C  0.43212089  0.58730269  0.59616148     0.28900
F809        F  0.39658678  0.59271640  0.56846387    -0.20500
H810        H  0.41195217  0.64125510  0.63572853     0.17300
H811        H  0.52320334  0.52356784  0.62010121     0.17300
F812        F  0.53460520  0.57257237  0.68896168    -0.20500
C813        C  0.44353353  0.40407327  0.90013066    -0.21900
C814        C  0.46162255  0.44682171  0.90678586    -0.10000
C815        C  0.49414849  0.46267317  0.87522591     0.28900
C816        C  0.50827987  0.43510699  0.84120657    -0.21900
C817        C  0.47664634  0.40407660  0.82755485    -0.10000
C818        C  0.45713911  0.37990097  0.86312268     0.28900
F819        F  0.44020735  0.33910878  0.85578160    -0.20500
H820        H  0.41771470  0.39063735  0.92178293     0.17300
H821        H  0.53078263  0.44931121  0.81617729     0.17300
F822        F  0.50722507  0.50581479  0.87214424    -0.20500
C823        C  0.87804436  0.47962692  0.02781038    -0.21900
C824        C  0.84307371  0.49194657  0.99879527    -0.10000
C825        C  0.85062285  0.48798258  0.95244273     0.28900
C826        C  0.89396043  0.49534196  0.93652444    -0.21900
C827        C  0.92953371  0.49842029  0.96699257    -0.10000
C828        C  0.92155082  0.48281555  0.01188926     0.28900
F829        F  0.95408950  0.46599991  0.03868146    -0.20500
H830        H  0.87251142  0.47450568  0.06370017     0.17300
H831        H  0.90098162  0.49749477  0.90107346     0.17300
F832        F  0.81563193  0.48775194  0.92304982    -0.20500
C833        C  0.62899063  0.49771525  0.92936446    -0.21900
C834        C  0.64213266  0.53569599  0.95131880    -0.10000
C835        C  0.61016147  0.56430660  0.96801131     0.28900
C836        C  0.56675442  0.55964697  0.95639233    -0.21900
C837        C  0.55389564  0.51674750  0.94977187    -0.10000
C838        C  0.58419263  0.48600709  0.93218161     0.28900
F839        F  0.57154633  0.44460004  0.92127893    -0.20500
H840        H  0.65319912  0.47522326  0.91604686     0.17300
H841        H  0.54353883  0.58353668  0.96891184     0.17300
F842        F  0.61726648  0.58555446  0.00643971    -0.20500
C843        C  0.98283348  0.57141006  0.37979478    -0.21900
C844        C  0.98171396  0.52604612  0.39346486    -0.10000
C845        C  0.97174092  0.49458955  0.36082151     0.28900
C846        C  0.97461398  0.50758841  0.31533794    -0.21900
C847        C  0.99473193  0.54877473  0.30535348    -0.10000
C848        C  0.98580467  0.58307367  0.33418180     0.28900
F849        F  0.99599940  0.62570579  0.32188010    -0.20500
H850        H  0.98568216  0.59735450  0.40364067     0.17300
H851        H  0.97463349  0.48201949  0.29055989     0.17300
F852        F  0.96459180  0.45128037  0.37251409    -0.20500
C853        C  0.62343398  0.46378787  0.59031217    -0.21900
C854        C  0.65496927  0.47804613  0.55860531    -0.10000
C855        C  0.64400369  0.51120375  0.52701104     0.28900
C856        C  0.59949408  0.51796475  0.51681871    -0.21900
C857        C  0.56582612  0.49459945  0.54064211    -0.10000
C858        C  0.57852326  0.46947526  0.57996150     0.28900
F859        F  0.54849643  0.44742799  0.60647969    -0.20500
H860        H  0.63261966  0.43971756  0.61686552     0.17300
H861        H  0.59270206  0.54043587  0.48922627     0.17300
F862        F  0.67551397  0.52887184  0.49905091    -0.20500
C863        C  0.86519572  0.51326455  0.52974860    -0.21900
C864        C  0.89223881  0.51193843  0.49148331    -0.10000
C865        C  0.87154127  0.51718054  0.44836012     0.28900
C866        C  0.82566714  0.51203434  0.44425330    -0.21900
C867        C  0.80340438  0.49504804  0.48194579    -0.10000
C868        C  0.81920017  0.50826407  0.52437234     0.28900
F869        F  0.79395231  0.50132319  0.56168027    -0.20500
H870        H  0.87961095  0.51352699  0.56343444     0.17300
H871        H  0.81124122  0.50900168  0.41077561     0.17300
F872        F  0.89478581  0.52361780  0.41008475    -0.20500
C873        C  0.79094045  0.73784010  0.62781873    -0.21900
C874        C  0.75689984  0.74157673  0.65961138    -0.10000
C875        C  0.71362376  0.72660331  0.64724330     0.28900
C876        C  0.70392395  0.71837715  0.60225100    -0.21900
C877        C  0.73397159  0.73480636  0.57046206    -0.10000
C878        C  0.77920749  0.73093327  0.58271010     0.28900
F879        F  0.81105339  0.73266511  0.55057836    -0.20500
H880        H  0.82543622  0.74260928  0.63733712     0.17300
H881        H  0.66963060  0.71193731  0.59245102     0.17300
F882        F  0.68093603  0.71979666  0.67726017    -0.20500
C883        C  0.72063875  0.74576069  0.87010608    -0.21900
C884        C  0.75560889  0.74457782  0.83895049    -0.10000
C885        C  0.79772330  0.76115056  0.85312140     0.28900
C886        C  0.80646438  0.76672413  0.89873376    -0.21900
C887        C  0.77593705  0.74884273  0.92905128    -0.10000
C888        C  0.73108017  0.75207266  0.91575399     0.28900
F889        F  0.69902785  0.74851633  0.94750476    -0.20500
H890        H  0.68659543  0.73941099  0.85966657     0.17300
H891        H  0.84010280  0.77452281  0.90973397     0.17300
F892        F  0.82882589  0.77560530  0.82404026    -0.20500
C893        C  0.80871059  0.26542036  0.10137900    -0.21900
C894        C  0.81518625  0.23316385  0.13677327    -0.10000
C895        C  0.85334579  0.20551688  0.13406815     0.28900
C896        C  0.87844468  0.20671317  0.09458304    -0.21900
C897        C  0.85711596  0.22383141  0.05574927    -0.10000
C898        C  0.83361037  0.26325622  0.06174748     0.28900
F899        F  0.82134053  0.28880919  0.02506504    -0.20500
H900        H  0.78162102  0.28852328  0.10150567     0.17300
H901        H  0.90450470  0.18244969  0.09136794     0.17300
F902        F  0.86251160  0.17283506  0.16522103    -0.20500
C903        C  0.72826418  0.29630794  0.30563559    -0.21900
C904        C  0.76863470  0.27384741  0.29948055    -0.10000
C905        C  0.78700629  0.24967771  0.33714553     0.28900
C906        C  0.76537947  0.24856224  0.37862498    -0.21900
C907        C  0.72565421  0.27224167  0.38436846    -0.10000
C908        C  0.70551855  0.29307965  0.34636749     0.28900
F909        F  0.66648483  0.31526799  0.34989825    -0.20500
H910        H  0.71432945  0.31739406  0.27932437     0.17300
H911        H  0.78199152  0.23262306  0.40755945     0.17300
F912        F  0.82558433  0.22664569  0.33423456    -0.20500
C913        C  0.52857709  0.46594832  0.13690286    -0.21900
C914        C  0.53972186  0.50991074  0.14685414    -0.10000
C915        C  0.54648163  0.54062339  0.11084446     0.28900
C916        C  0.54413486  0.52678097  0.06650158    -0.21900
C917        C  0.53284199  0.48278953  0.05629288    -0.10000
C918        C  0.52876619  0.45201104  0.09269130     0.28900
F919        F  0.52647145  0.40795769  0.08574554    -0.20500
H920        H  0.52469187  0.44093695  0.16379295     0.17300
H921        H  0.55001399  0.55153492  0.04050957     0.17300
F922        F  0.55843763  0.58330649  0.11821291    -0.20500
C923        C  0.51122868  0.45533886  0.37783789    -0.21900
C924        C  0.54954998  0.47578146  0.36007548    -0.10000
C925        C  0.56787843  0.51193351  0.38405193     0.28900
C926        C  0.54617370  0.53004405  0.41886360    -0.21900
C927        C  0.51420426  0.50578318  0.44099314    -0.10000
C928        C  0.49425992  0.46933375  0.41916850     0.28900
F929        F  0.45659961  0.44992031  0.43515156    -0.20500
H930        H  0.49416904  0.42964238  0.35962578     0.17300
H931        H  0.55788888  0.56144885  0.43122613     0.17300
F932        F  0.60892216  0.52872699  0.37883759    -0.20500
C933        C  0.78692402  0.41312739  0.22061793    -0.21900
C934        C  0.75956978  0.42721339  0.18442987    -0.10000
C935        C  0.75290131  0.39862601  0.14900383     0.28900
C936        C  0.75395506  0.35339414  0.15930992    -0.21900
C937        C  0.77014270  0.33719737  0.20172062    -0.10000
C938        C  0.79022765  0.36781979  0.23093105     0.28900
F939        F  0.80950043  0.35503679  0.27091725    -0.20500
H940        H  0.79596659  0.43617857  0.24645805     0.17300
H941        H  0.73775402  0.33199077  0.13569913     0.17300
F942        F  0.73099720  0.41299516  0.11081868    -0.20500
C943        C  0.81657443  0.79065826  0.35574712    -0.21900
C944        C  0.77038634  0.78214877  0.34972680    -0.10000
C945        C  0.74922288  0.75458683  0.38306288     0.28900
C946        C  0.77430621  0.73593928  0.41902903    -0.21900
C947        C  0.81132838  0.76109303  0.43147698    -0.10000
C948        C  0.83829549  0.77612772  0.39569323     0.28900
F949        F  0.88025811  0.79104213  0.40412917    -0.20500
H950        H  0.83499239  0.81112892  0.33177990     0.17300
H951        H  0.75625911  0.71794547  0.44540851     0.17300
F952        F  0.70426268  0.75386429  0.38673202    -0.20500
C953        C  0.74793570  0.67810898  0.19170892    -0.21900
C954        C  0.73911187  0.72140944  0.20190684    -0.10000
C955        C  0.72246229  0.75129122  0.16795635     0.28900
C956        C  0.72234686  0.73907425  0.12294931    -0.21900
C957        C  0.74241143  0.69907078  0.11265394    -0.10000
C958        C  0.75576086  0.66893416  0.14771148     0.28900
F959        F  0.77961219  0.63196278  0.14026360    -0.20500
H960        H  0.75475805  0.65293787  0.21780540     0.17300
H961        H  0.70957661  0.76150150  0.09651029     0.17300
F962        F  0.70607775  0.79140502  0.17818217    -0.20500
C963        C  0.68524977  0.64139509  0.35934643    -0.21900
C964        C  0.71726046  0.61040630  0.34729841    -0.10000
C965        C  0.75939714  0.62579063  0.33554878     0.28900
C966        C  0.76300819  0.66941534  0.31955957    -0.21900
C967        C  0.72388527  0.69410707  0.31158885    -0.10000
C968        C  0.68631552  0.68221439  0.33630368     0.28900
F969        F  0.65154710  0.71015124  0.33732456    -0.20500
H970        H  0.65407068  0.63053143  0.37434419     0.17300
H971        H  0.79517142  0.68339188  0.31312468     0.17300
F972        F  0.79423088  0.59751233  0.33279610    -0.20500
C973        C  0.57360386  0.34139248  0.98719009    -0.21900
C974        C  0.54306547  0.30676746  0.99223944    -0.10000
C975        C  0.50101230  0.31422247  0.97260205     0.28900
C976        C  0.48239631  0.35568042  0.97982104    -0.21900
C977        C  0.51021385  0.39142970  0.99153906    -0.10000
C978        C  0.55726921  0.38403980  0.99289632     0.28900
F979        F  0.58712783  0.41544680  0.00533304    -0.20500
H980        H  0.60866625  0.33531082  0.99417497     0.17300
H981        H  0.44654512  0.35824806  0.98076937     0.17300
F982        F  0.47346450  0.27932735  0.96535747    -0.20500
C983        C  0.68976926  0.20142618  0.17893774    -0.21900
C984        C  0.70286421  0.24483590  0.18868326    -0.10000
C985        C  0.67293084  0.27075096  0.21265109     0.28900
C986        C  0.63513356  0.25166770  0.23197783    -0.21900
C987        C  0.62130167  0.20930524  0.21917017    -0.10000
C988        C  0.65214503  0.18231112  0.19837223     0.28900
F989        F  0.64140274  0.14018040  0.18832770    -0.20500
H990        H  0.70902279  0.18183097  0.15651703     0.17300
H991        H  0.61175242  0.27348985  0.24772773     0.17300
F992        F  0.67728207  0.31548357  0.21277135    -0.20500
C993        C  0.67655185  0.98530660  0.07643832    -0.21900
C994        C  0.68542258  0.02238260  0.10224241    -0.10000
C995        C  0.64805028  0.04035219  0.12208311     0.28900
C996        C  0.60868825  0.04298065  0.09620955    -0.21900
C997        C  0.60402421  0.01808700  0.05679490    -0.10000
C998        C  0.63912042  0.98820829  0.04773923     0.28900
F999        F  0.64104664  0.96688257  0.00847182    -0.20500
H1000       H  0.70431516  0.96543770  0.06583114     0.17300
H1001       H  0.58393249  0.06655385  0.10548035     0.17300
F1002       F  0.65310979  0.06528327  0.15873636    -0.20500
C1003       C  0.46487397  0.09390637  0.00656917    -0.21900
C1004       C  0.51095905  0.08574476  0.01461077    -0.10000
C1005       C  0.54131780  0.11682204  0.99547051     0.28900
C1006       C  0.52560977  0.15903812  0.98150878    -0.21900
C1007       C  0.48121761  0.16960740  0.99123479    -0.10000
C1008       C  0.45089555  0.13473317  0.98782454     0.28900
F1009       F  0.40656321  0.14347519  0.98513545    -0.20500
H1010       H  0.43955173  0.07101706  0.01712416     0.17300
H1011       H  0.54946193  0.18524551  0.97377811     0.17300
F1012       F  0.58541658  0.10791512  0.99352432    -0.20500
C1013       C  0.76913314  0.90170555  0.70659479    -0.21900
C1014       C  0.76301768  0.91653703  0.75019156    -0.10000
C1015       C  0.77454435  0.88681070  0.78548090     0.28900
C1016       C  0.76190839  0.84286437  0.77990422    -0.21900
C1017       C  0.75178547  0.82761239  0.73637298    -0.10000
C1018       C  0.75967907  0.85710378  0.69946213     0.28900
F1019       F  0.75825692  0.84275488  0.65735227    -0.20500
H1020       H  0.76924799  0.92513990  0.67800536     0.17300
H1021       H  0.75704876  0.82293513  0.80984123     0.17300
F1022       F  0.77970900  0.90139730  0.82808111    -0.20500
C1023       C  0.53191108  0.01310462  0.88205558    -0.21900
C1024       C  0.56142449  0.98395489  0.86290176    -0.10000
C1025       C  0.58326548  0.95223285  0.89109850     0.28900
C1026       C  0.57835355  0.95174739  0.93705356    -0.21900
C1027       C  0.55319180  0.98404025  0.95633297    -0.10000
C1028       C  0.52798862  0.01352184  0.92819613     0.28900
F1029       F  0.49666261  0.04029649  0.94378884    -0.20500
H1030       H  0.51286768  0.03696096  0.86153702     0.17300
H1031       H  0.59536494  0.92646281  0.95748562     0.17300
F1032       F  0.61138871  0.92260408  0.87626440    -0.20500
C1033       C  0.46393074  0.67345523  0.49589590    -0.21900
C1034       C  0.50873234  0.68158563  0.48555112    -0.10000
C1035       C  0.53996891  0.65095789  0.50204818     0.28900
C1036       C  0.52539767  0.60783089  0.51104776    -0.21900
C1037       C  0.48113581  0.59576914  0.49972806    -0.10000
C1038       C  0.44965138  0.62952134  0.49593838     0.28900
F1039       F  0.40639205  0.61965336  0.48870445    -0.20500
H1040       H  0.43969317  0.69960517  0.49157051     0.17300
H1041       H  0.54924092  0.58414022  0.52322462     0.17300
F1042       F  0.58434833  0.65953669  0.49929977    -0.20500
C1043       C  0.61009896  0.84838614  0.26915410    -0.21900
C1044       C  0.57965868  0.81583889  0.25553461    -0.10000
C1045       C  0.59710037  0.77943101  0.23395562     0.28900
C1046       C  0.64048789  0.76642145  0.24508545    -0.21900
C1047       C  0.66724206  0.79195584  0.27455343    -0.10000
C1048       C  0.65115871  0.83369181  0.28612894     0.28900
F1049       F  0.66993365  0.85612773  0.32018931    -0.20500
H1050       H  0.59776503  0.87938572  0.28155681     0.17300
H1051       H  0.65095236  0.73430117  0.23411131     0.17300
F1052       F  0.56938074  0.75028785  0.21364065    -0.20500
C1053       C  0.65210145  0.00757316  0.45786810    -0.21900
C1054       C  0.67922448  0.99156909  0.49290656    -0.10000
C1055       C  0.66485069  0.99860282  0.53714294     0.28900
C1056       C  0.61898093  0.99844688  0.54526203    -0.21900
C1057       C  0.58921836  0.99778006  0.50846049    -0.10000
C1058       C  0.60642787  0.00772002  0.46485640     0.28900
F1059       F  0.58025199  0.01617878  0.42860166    -0.20500
H1060       H  0.66410627  0.00867630  0.42347907     0.17300
H1061       H  0.60697276  0.99565997  0.57954497     0.17300
F1062       F  0.69381637  0.99356294  0.57239996    -0.20500
C1063       C  0.35051739  0.98315413  0.54841777    -0.21900
C1064       C  0.32128722  0.99272786  0.51291193    -0.10000
C1065       C  0.33692805  0.98577841  0.46926280     0.28900
C1066       C  0.38253114  0.99174492  0.46120165    -0.21900
C1067       C  0.41121931  0.00182293  0.49724830    -0.10000
C1068       C  0.39482925  0.99476820  0.54173751     0.28900
F1069       F  0.42061285  0.99791425  0.57879040    -0.20500
H1070       H  0.33833871  0.98122417  0.58275707     0.17300
H1071       H  0.39509429  0.99115766  0.42727439     0.17300
F1072       F  0.30775356  0.98408964  0.43400977    -0.20500
C1073       C  0.50856186  0.95644959  0.60375736    -0.21900
C1074       C  0.50857149  0.00183826  0.59024280    -0.10000
C1075       C  0.49372103  0.03255463  0.62138630     0.28900
C1076       C  0.48718860  0.01865307  0.66648245    -0.21900
C1077       C  0.49922557  0.97496647  0.68006431    -0.10000
C1078       C  0.49611649  0.94311856  0.64721039     0.28900
F1079       F  0.49800866  0.89925835  0.65932720    -0.20500
H1080       H  0.51913193  0.93108588  0.58188510     0.17300
H1081       H  0.48274063  0.04355505  0.69148451     0.17300
F1082       F  0.48564014  0.07522251  0.60804281    -0.20500
C1083       C  0.46508661  0.90653988  0.51816487    -0.21900
C1084       C  0.50659338  0.91840961  0.49915395    -0.10000
C1085       C  0.53907593  0.88574879  0.49757458     0.28900
C1086       C  0.52652217  0.84117211  0.50468759    -0.21900
C1087       C  0.48071220  0.83135447  0.50561840    -0.10000
C1088       C  0.45349403  0.86221592  0.52510014     0.28900
F1089       F  0.41070218  0.85151321  0.53548537    -0.20500
H1090       H  0.44140115  0.93047152  0.52685611     0.17300
H1091       H  0.54995828  0.81515485  0.49793504     0.17300
F1092       F  0.58076994  0.89738171  0.48503636    -0.20500
C1093       C  0.50928989  0.04894512  0.14067846    -0.21900
C1094       C  0.50527269  0.01186735  0.11325025    -0.10000
C1095       C  0.51199644  0.96884758  0.13400168     0.28900
C1096       C  0.51424652  0.96437098  0.18081425    -0.21900
C1097       C  0.49877707  0.00012778  0.20415977    -0.10000
C1098       C  0.51182886  0.04214424  0.18746678     0.28900
F1099       F  0.50922369  0.07748606  0.21428359    -0.20500
H1100       H  0.50778896  0.08243411  0.12623667     0.17300
H1101       H  0.51315637  0.93124464  0.19633735     0.17300
F1102       F  0.51126867  0.93091278  0.11129086    -0.20500
C1103       C  0.49693418  0.05007389  0.40380146    -0.21900
C1104       C  0.49422135  0.00395696  0.41468541    -0.10000
C1105       C  0.50874246  0.97466961  0.38168723     0.28900
C1106       C  0.51713154  0.99170203  0.33784390    -0.21900
C1107       C  0.50279538  0.03534296  0.32715135    -0.10000
C1108       C  0.50933575  0.06526824  0.36101633     0.28900
F1109       F  0.51005111  0.10963589  0.35115786    -0.20500
H1110       H  0.48828881  0.07486059  0.42655139     0.17300
H1111       H  0.52181527  0.96861355  0.31113424     0.17300
F1112       F  0.51209900  0.93038538  0.39081389    -0.20500
C1113       C  0.49573676  0.41189426  0.50984045    -0.21900
C1114       C  0.46934712  0.43688437  0.53949937    -0.10000
C1115       C  0.42709987  0.42003445  0.55106218     0.28900
C1116       C  0.41074973  0.38235991  0.53043776    -0.21900
C1117       C  0.44244652  0.35353083  0.51368929    -0.10000
C1118       C  0.47964299  0.37244043  0.49284275     0.28900
F1119       F  0.50714431  0.34702960  0.46859907    -0.20500
H1120       H  0.52864349  0.42239327  0.49929651     0.17300
H1121       H  0.37911179  0.36904095  0.54217795     0.17300
F1122       F  0.40466164  0.43597323  0.58627399    -0.20500
C1123       C  0.46976691  0.16021356  0.48420665    -0.21900
C1124       C  0.51349654  0.17386951  0.49454702    -0.10000
C1125       C  0.54694335  0.14342150  0.48685178     0.28900
C1126       C  0.53751707  0.09941095  0.49889317    -0.21900
C1127       C  0.49281081  0.08555554  0.50616605    -0.10000
C1128       C  0.45872004  0.11558705  0.49318058     0.28900
F1129       F  0.41596136  0.10169584  0.48887897    -0.20500
H1130       H  0.44328638  0.18443046  0.48044280     0.17300
H1131       H  0.56530319  0.07750046  0.50362206     0.17300
F1132       F  0.59014562  0.15689070  0.48464662    -0.20500
C1133       C  0.28151181  0.24215522  0.65287634    -0.21900
C1134       C  0.25591385  0.22595167  0.68934154    -0.10000
C1135       C  0.21434261  0.20609719  0.67969558     0.28900
C1136       C  0.19691158  0.20867244  0.63602705    -0.21900
C1137       C  0.22368922  0.22371745  0.60015111    -0.10000
C1138       C  0.26404401  0.24515127  0.60937059     0.28900
F1139       F  0.29123822  0.25823624  0.57495714    -0.20500
H1140       H  0.31595196  0.25054536  0.65753411     0.17300
H1141       H  0.16588681  0.19124769  0.62950178     0.17300
F1142       F  0.18980743  0.18505834  0.71218144    -0.20500
C1143       C  0.25214766  0.13045951  0.82492635    -0.21900
C1144       C  0.20837184  0.11961497  0.83502606    -0.10000
C1145       C  0.17784695  0.15418636  0.84026729     0.28900
C1146       C  0.18482834  0.19473701  0.81723132    -0.21900
C1147       C  0.22661896  0.20311363  0.79838141    -0.10000
C1148       C  0.26171582  0.17393708  0.81128933     0.28900
F1149       F  0.30379841  0.18873883  0.81616987    -0.20500
H1150       H  0.27804626  0.10550066  0.82629211     0.17300
H1151       H  0.15827503  0.21891148  0.81395654     0.17300
F1152       F  0.13965124  0.14653159  0.86294040    -0.20500
C1153       C  0.25135080  0.37254658  0.71719899    -0.21900
C1154       C  0.28636722  0.34138909  0.71678006    -0.10000
C1155       C  0.31278440  0.34187541  0.67750560     0.28900
C1156       C  0.30800944  0.37574058  0.64415452    -0.21900
C1157       C  0.28313327  0.41287634  0.65503571    -0.10000
C1158       C  0.24546985  0.40363357  0.68131728     0.28900
F1159       F  0.21418575  0.43559279  0.68523889    -0.20500
H1160       H  0.23154715  0.37662810  0.74647053     0.17300
H1161       H  0.33332075  0.37886474  0.61841874     0.17300
F1162       F  0.34770395  0.31441179  0.67471138    -0.20500
C1163       C  0.35710091  0.19953692  0.74936823    -0.21900
C1164       C  0.35076272  0.24595546  0.75177799    -0.10000
C1165       C  0.38795403  0.27228228  0.76397160     0.28900
C1166       C  0.42928830  0.25227766  0.77251256    -0.21900
C1167       C  0.43545110  0.20985943  0.75619211    -0.10000
C1168       C  0.39901963  0.18101150  0.75799976     0.28900
F1169       F  0.40509787  0.13724476  0.75072687    -0.20500
H1170       H  0.33020872  0.17755655  0.73984549     0.17300
H1171       H  0.45806301  0.27379434  0.77631682     0.17300
F1172       F  0.38716019  0.31704613  0.75901043    -0.20500
C1173       C  0.16170630  0.49481103  0.90431957    -0.21900
C1174       C  0.19089401  0.50298636  0.94015190    -0.10000
C1175       C  0.17335987  0.52882523  0.97383445     0.28900
C1176       C  0.12997215  0.51834574  0.98724547    -0.21900
C1177       C  0.10207951  0.49237137  0.95926559    -0.10000
C1178       C  0.11860713  0.48165157  0.91641419     0.28900
F1179       F  0.09738055  0.45295566  0.88970830    -0.20500
H1180       H  0.17492006  0.48260797  0.87322975     0.17300
H1181       H  0.11873548  0.53007606  0.01926051     0.17300
F1182       F  0.20108222  0.54978156  0.00272011    -0.20500
C1183       C  0.39084593  0.50360203  0.01526085    -0.21900
C1184       C  0.41932171  0.46686242  0.02517339    -0.10000
C1185       C  0.42141603  0.45087356  0.07086676     0.28900
C1186       C  0.39245715  0.46850541  0.10231472    -0.21900
C1187       C  0.35513497  0.49061126  0.08396471    -0.10000
C1188       C  0.36510295  0.52126782  0.04917937     0.28900
F1189       F  0.33514070  0.55342948  0.03754609    -0.20500
H1190       H  0.38307714  0.51435487  0.98107513     0.17300
H1191       H  0.39034629  0.45213594  0.13539563     0.17300
F1192       F  0.44385873  0.41348466  0.08306451    -0.20500
C1193       C  0.26778517  0.26392129  0.86962304    -0.21900
C1194       C  0.28905039  0.29355614  0.83825465    -0.10000
C1195       C  0.33206871  0.30858053  0.84987017     0.28900
C1196       C  0.35189951  0.29493189  0.89101663    -0.21900
C1197       C  0.32425074  0.27685163  0.92459940    -0.10000
C1198       C  0.28901852  0.25033725  0.90987956     0.28900
F1199       F  0.26604149  0.22474505  0.94036389    -0.20500
H1200       H  0.23384348  0.25311327  0.86496588     0.17300
H1201       H  0.38233070  0.31116800  0.90127684     0.17300
F1202       F  0.35130244  0.34206507  0.82571988    -0.20500
C1203       C  0.26148479  0.40570804  0.29057088    -0.21900
C1204       C  0.24198542  0.43612949  0.26023784    -0.10000
C1205       C  0.24542642  0.42719129  0.21418191     0.28900
C1206       C  0.24280511  0.38280931  0.20181263    -0.21900
C1207       C  0.24684243  0.34939527  0.23565270    -0.10000
C1208       C  0.26345012  0.36170652  0.27838060     0.28900
F1209       F  0.28143984  0.33211341  0.30810709    -0.20500
H1210       H  0.26660506  0.41371864  0.32561230     0.17300
H1211       H  0.23538390  0.37461194  0.16730700     0.17300
F1212       F  0.23922674  0.46035597  0.18274787    -0.20500
C1213       C  0.29154291  0.25169303  0.34743455    -0.21900
C1214       C  0.24642245  0.25258894  0.33301762    -0.10000
C1215       C  0.21365668  0.26093974  0.36512370     0.28900
C1216       C  0.22517894  0.25953026  0.41093653    -0.21900
C1217       C  0.26837738  0.24636634  0.42390452    -0.10000
C1218       C  0.30253349  0.25307947  0.39297777     0.28900
F1219       F  0.34563609  0.24660402  0.40610273    -0.20500
H1220       H  0.31836184  0.24916183  0.32387671     0.17300
H1221       H  0.19866134  0.25826392  0.43548573     0.17300
F1222       F  0.17033373  0.26568131  0.35302470    -0.20500
C1223       C  0.36247927  0.21963518  0.25191187    -0.21900
C1224       C  0.33547385  0.25512955  0.23559137    -0.10000
C1225       C  0.35487293  0.29808343  0.23263851     0.28900
C1226       C  0.40001569  0.30379692  0.24242008    -0.21900
C1227       C  0.42722954  0.26645152  0.24304496    -0.10000
C1228       C  0.40835213  0.22585442  0.25772976     0.28900
F1229       F  0.43480545  0.19003712  0.26635065    -0.20500
H1230       H  0.34865244  0.18671095  0.25755680     0.17300
H1231       H  0.41450180  0.33632371  0.23530802     0.17300
F1232       F  0.33251391  0.33398368  0.21606367    -0.20500
C1233       C  0.24296776  0.16207057  0.20754537    -0.21900
C1234       C  0.25302554  0.17609346  0.25163843    -0.10000
C1235       C  0.24701323  0.14541495  0.28810831     0.28900
C1236       C  0.23992206  0.10076748  0.27921285    -0.21900
C1237       C  0.24607459  0.08797122  0.23481496    -0.10000
C1238       C  0.23299753  0.11786014  0.20060527     0.28900
F1239       F  0.22702608  0.10409232  0.15782511    -0.20500
H1240       H  0.24276309  0.18415647  0.17863298     0.17300
H1241       H  0.24257648  0.07634507  0.30687286     0.17300
F1242       F  0.25284680  0.15726560  0.33125397    -0.20500
C1243       C  0.25467265  0.24363099  0.07869937    -0.21900
C1244       C  0.21114292  0.25865136  0.06888191    -0.10000
C1245       C  0.18098942  0.25287044  0.10428541     0.28900
C1246       C  0.19697089  0.26116861  0.14775761    -0.21900
C1247       C  0.24350915  0.26350759  0.15653153    -0.10000
C1248       C  0.27186705  0.24870688  0.12264029     0.28900
F1249       F  0.31583180  0.24209222  0.13123769    -0.20500
H1250       H  0.27772729  0.23882673  0.05146563     0.17300
H1251       H  0.17283822  0.26876775  0.17262594     0.17300
F1252       F  0.13657278  0.25657017  0.09572122    -0.20500
C1253       C  0.04622554  0.39445301  0.49929035    -0.21900
C1254       C  0.01878728  0.35836797  0.51009687    -0.10000
C1255       C  0.97370085  0.36773166  0.51911967     0.28900
C1256       C  0.95419907  0.40633992  0.49948572    -0.21900
C1257       C  0.98102845  0.43763258  0.47550602    -0.10000
C1258       C  0.02709889  0.42829293  0.47239018     0.28900
F1259       F  0.05205666  0.44610989  0.43850167    -0.20500
H1260       H  0.08163823  0.38872466  0.49508277     0.17300
H1261       H  0.91893084  0.41234809  0.50395238     0.17300
F1262       F  0.94707988  0.33555988  0.53752222    -0.20500
C1263       C  0.87667916  0.28482598  0.22614134    -0.21900
C1264       C  0.86075667  0.24164433  0.23788462    -0.10000
C1265       C  0.89211076  0.20788475  0.24526933     0.28900
C1266       C  0.93723799  0.21877491  0.24791984    -0.21900
C1267       C  0.94788961  0.26335745  0.25573468    -0.10000
C1268       C  0.92108032  0.29571796  0.23461916     0.28900
F1269       F  0.93376036  0.33904021  0.23365902    -0.20500
H1270       H  0.85476849  0.31089142  0.21423676     0.17300
H1271       H  0.96014808  0.19279667  0.25907659     0.17300
F1272       F  0.87871162  0.16568558  0.25428310    -0.20500
C1273       C  0.09884315  0.22290609  0.25491749    -0.21900
C1274       C  0.07368886  0.25567770  0.27346832    -0.10000
C1275       C  0.08783186  0.29988953  0.26754566     0.28900
C1276       C  0.13314607  0.30883733  0.26163119    -0.21900
C1277       C  0.16237386  0.27335670  0.25685254    -0.10000
C1278       C  0.14377969  0.23093148  0.24889590     0.28900
F1279       F  0.16841558  0.19615817  0.23798869    -0.20500
H1280       H  0.08692596  0.18885277  0.25539511     0.17300
H1281       H  0.14561041  0.34229392  0.26433530     0.17300
F1282       F  0.05940969  0.33324329  0.27547348    -0.20500
C1283       C  0.99203137  0.53795585  0.64765253    -0.21900
C1284       C  0.98822266  0.49246910  0.65880509    -0.10000
C1285       C  0.99764264  0.46275706  0.62574386     0.28900
C1286       C  0.98586072  0.47576866  0.58216864    -0.21900
C1287       C  0.97651635  0.52041879  0.57019312    -0.10000
C1288       C  0.98488635  0.55221106  0.60271880     0.28900
F1289       F  0.98360893  0.59607615  0.59138060    -0.20500
H1290       H  0.99116817  0.56199716  0.67399165     0.17300
H1291       H  0.98647316  0.45023544  0.55719897     0.17300
F1292       F  0.00177673  0.41877099  0.63667993    -0.20500
C1293       C  0.02522472  0.48820244  0.79902230    -0.21900
C1294       C  0.00726190  0.53036888  0.78994791    -0.10000
C1295       C  0.01758170  0.56221097  0.82154823     0.28900
C1296       C  0.01560873  0.54795586  0.86679471    -0.21900
C1297       C  0.01271174  0.50199776  0.87792777    -0.10000
C1298       C  0.02212045  0.47208775  0.84367642     0.28900
F1299       F  0.02338192  0.42779607  0.85230935    -0.20500
H1300       H  0.02624048  0.46447115  0.77245732     0.17300
H1301       H  0.01178921  0.57278000  0.89140016     0.17300
F1302       F  0.01140471  0.60598012  0.81085036    -0.20500
C1303       C  0.75447097  0.64833367  0.71209294    -0.21900
C1304       C  0.76131425  0.66073393  0.75739130    -0.10000
C1305       C  0.74672533  0.63021716  0.79155462     0.28900
C1306       C  0.73129487  0.58802953  0.77967331    -0.21900
C1307       C  0.73967805  0.57486414  0.73540978    -0.10000
C1308       C  0.73418346  0.60820753  0.70235047     0.28900
F1309       F  0.72766047  0.59784769  0.65853316    -0.20500
H1310       H  0.76807512  0.66642791  0.68404061     0.17300
H1311       H  0.72556809  0.56314931  0.80630397     0.17300
F1312       F  0.74825544  0.64058373  0.83548620    -0.20500
C1313       C  0.76892303  0.07127664  0.76597519    -0.21900
C1314       C  0.75315458  0.06044713  0.72336607    -0.10000
C1315       C  0.75222793  0.09470446  0.69024101     0.28900
C1316       C  0.74117691  0.13701277  0.70408722    -0.21900
C1317       C  0.73955876  0.14543200  0.75058589    -0.10000
C1318       C  0.75540713  0.11211425  0.78146451     0.28900
F1319       F  0.75207356  0.11656252  0.82644974    -0.20500
H1320       H  0.77567500  0.04483372  0.79087848     0.17300
H1321       H  0.72983434  0.16067309  0.67868699     0.17300
F1322       F  0.74608819  0.08509927  0.64615924    -0.20500
C1323       C  0.63904192  0.19889936  0.88261057    -0.21900
C1324       C  0.65683173  0.22135717  0.91879516    -0.10000
C1325       C  0.68433826  0.25779117  0.90656166     0.28900
C1326       C  0.71307835  0.25303189  0.86981948    -0.21900
C1327       C  0.70754723  0.21703332  0.84108647    -0.10000
C1328       C  0.66850969  0.19057337  0.84788345     0.28900
F1329       F  0.66202799  0.15265684  0.82580629    -0.20500
H1330       H  0.61213081  0.17530856  0.88849576     0.17300
H1331       H  0.74115639  0.27478724  0.86718937     0.17300
F1332       F  0.69466577  0.28819057  0.93773377    -0.20500
C1333       C  0.64176177  0.27622155  0.76085337    -0.21900
C1334       C  0.65173967  0.23136088  0.75261675    -0.10000
C1335       C  0.61736258  0.19996567  0.75821702     0.28900
C1336       C  0.57420102  0.21405459  0.76753203    -0.21900
C1337       C  0.56412583  0.25847545  0.75577715    -0.10000
C1338       C  0.59748565  0.28965267  0.76442648     0.28900
F1339       F  0.58803474  0.33371838  0.76254717    -0.20500
H1340       H  0.66713456  0.30133827  0.76153164     0.17300
H1341       H  0.54778413  0.18942120  0.76740097     0.17300
F1342       F  0.62483219  0.15665710  0.75094661    -0.20500
C1343       C  0.71638648  0.23130571  0.59622139    -0.21900
C1344       C  0.76068787  0.24012301  0.58357278    -0.10000
C1345       C  0.79342180  0.23242946  0.61653806     0.28900
C1346       C  0.78221461  0.23805806  0.66148654    -0.21900
C1347       C  0.73773563  0.24498614  0.67398461    -0.10000
C1348       C  0.70449039  0.23733677  0.64114866     0.28900
F1349       F  0.66103629  0.23561606  0.65275380    -0.20500
H1350       H  0.69026403  0.23087699  0.57068343     0.17300
H1351       H  0.80806397  0.23620273  0.68536315     0.17300
F1352       F  0.83708254  0.23192217  0.60499974    -0.20500
C1353       C  0.73723502  0.39397246  0.74815772    -0.21900
C1354       C  0.76090980  0.40575140  0.78712089    -0.10000
C1355       C  0.77058295  0.37295006  0.82007656     0.28900
C1356       C  0.77285782  0.32945369  0.80688076    -0.21900
C1357       C  0.75449927  0.31638029  0.76526780    -0.10000
C1358       C  0.73501993  0.34946313  0.73648037     0.28900
F1359       F  0.71707972  0.33967110  0.69578855    -0.20500
H1360       H  0.72828141  0.41937545  0.72287371     0.17300
H1361       H  0.79179746  0.30677365  0.82859697     0.17300
F1362       F  0.79166385  0.38374129  0.85912144    -0.20500
C1363       C  0.40752214  0.61630653  0.93677394    -0.21900
C1364       C  0.42965536  0.64323046  0.96781763    -0.10000
C1365       C  0.45209648  0.62248863  0.00410413     0.28900
C1366       C  0.46212167  0.57763843  0.00191943    -0.21900
C1367       C  0.45333930  0.55463511  0.96207134    -0.10000
C1368       C  0.42261291  0.57308834  0.93138554     0.28900
F1369       F  0.40883312  0.54963445  0.89593400    -0.20500
H1370       H  0.38669707  0.63131209  0.91043629     0.17300
H1371       H  0.47814952  0.56168418  0.03035267     0.17300
F1372       F  0.47036530  0.64674196  0.03735743    -0.20500
C1373       C  0.65692894  0.70130778  0.76654256    -0.21900
C1374       C  0.67039034  0.74603826  0.76085574    -0.10000
C1375       C  0.63875799  0.77686194  0.74378158     0.28900
C1376       C  0.59389819  0.76435101  0.74054360    -0.21900
C1377       C  0.58106546  0.72205755  0.75723812    -0.10000
C1378       C  0.61304308  0.68874354  0.75852541     0.28900
F1379       F  0.60087478  0.64587573  0.76752752    -0.20500
H1380       H  0.67947887  0.67590373  0.77757744     0.17300
H1381       H  0.56900011  0.78988983  0.73449834     0.17300
F1382       F  0.65081684  0.81916421  0.73280555    -0.20500
C1383       C  0.56016671  0.84313793  0.02354320    -0.21900
C1384       C  0.52355757  0.82183227  0.00485361    -0.10000
C1385       C  0.48092351  0.83886954  0.01201842     0.28900
C1386       C  0.47671713  0.88390801  0.01980247    -0.21900
C1387       C  0.51541511  0.90978075  0.02445845    -0.10000
C1388       C  0.55616395  0.88756256  0.03326319     0.28900
F1389       F  0.59241310  0.90884907  0.04922610    -0.20500
H1390       H  0.59311793  0.82861166  0.02237078     0.17300
H1391       H  0.44384558  0.89831998  0.01896624     0.17300
F1392       F  0.44413228  0.81481623  0.00162206    -0.20500
C1393       C  0.25989133  0.85310810  0.81579492    -0.21900
C1394       C  0.25050630  0.82090650  0.78381040    -0.10000
C1395       C  0.25965079  0.83238259  0.73793894     0.28900
C1396       C  0.27200801  0.87563755  0.72494675    -0.21900
C1397       C  0.26628656  0.90886237  0.75562022    -0.10000
C1398       C  0.27236106  0.89632648  0.80151774     0.28900
F1399       F  0.27777595  0.92802101  0.83250704    -0.20500
H1400       H  0.25913635  0.84381490  0.85125425     0.17300
H1401       H  0.27442965  0.88421968  0.68920475     0.17300
F1402       F  0.25800851  0.80258371  0.70547024    -0.20500
C1403       C  0.29644169  0.64004114  0.84691344    -0.21900
C1404       C  0.27346462  0.64988084  0.80574779    -0.10000
C1405       C  0.24360463  0.61729663  0.78991594     0.28900
C1406       C  0.23744342  0.57762988  0.81522681    -0.21900
C1407       C  0.27162068  0.56509851  0.84586098    -0.10000
C1408       C  0.29026570  0.59939824  0.87013585     0.28900
F1409       F  0.31412820  0.58994602  0.90841302    -0.20500
H1410       H  0.32136452  0.66206048  0.85967140     0.17300
H1411       H  0.21695782  0.55208941  0.80046661     0.17300
F1412       F  0.22226857  0.62233144  0.74937036    -0.20500
C1413       C  0.34780816  0.79590827  0.78049114    -0.21900
C1414       C  0.34067008  0.74954295  0.77940133    -0.10000
C1415       C  0.37104658  0.72513783  0.75387588     0.28900
C1416       C  0.40642728  0.74711798  0.73182357    -0.21900
C1417       C  0.41784838  0.78939994  0.74694427    -0.10000
C1418       C  0.38179176  0.81644715  0.75568046     0.28900
F1419       F  0.38798166  0.86093669  0.75850454    -0.20500
H1420       H  0.33116397  0.81577877  0.80403160     0.17300
H1421       H  0.43200867  0.72691941  0.71733657     0.17300
F1422       F  0.37114224  0.68018330  0.75607590    -0.20500
C1423       C  0.35950342  0.49326370  0.52217863    -0.21900
C1424       C  0.39458353  0.51076497  0.49544016    -0.10000
C1425       C  0.38802797  0.51284030  0.44765376     0.28900
C1426       C  0.34614033  0.50272974  0.42952197    -0.21900
C1427       C  0.31042871  0.50308940  0.45905061    -0.10000
C1428       C  0.31829566  0.48360119  0.50204173     0.28900
F1429       F  0.28316736  0.47369989  0.52911030    -0.20500
H1430       H  0.36141781  0.49323384  0.55857607     0.17300
H1431       H  0.34026998  0.51005319  0.39385296     0.17300
F1432       F  0.41870597  0.53055028  0.41890246    -0.20500
C1433       C  0.07587757  0.50651101  0.52026488    -0.21900
C1434       C  0.06426428  0.52553986  0.47753555    -0.10000
C1435       C  0.09624189  0.52601536  0.44372368     0.28900
C1436       C  0.13994338  0.51270082  0.45443514    -0.21900
C1437       C  0.15202753  0.50730601  0.50002671    -0.10000
C1438       C  0.11923746  0.49285219  0.52978376     0.28900
F1439       F  0.13037334  0.47932073  0.57266715    -0.20500
H1440       H  0.05341182  0.50393466  0.54678230     0.17300
H1441       H  0.16597025  0.51763310  0.42996337     0.17300
F1442       F  0.08519294  0.54186136  0.40189704    -0.20500
C1443       C  0.23208181  0.73819273  0.62607289    -0.21900
C1444       C  0.27308386  0.72297521  0.61051480    -0.10000
C1445       C  0.30582995  0.71077266  0.64226762     0.28900
C1446       C  0.29302843  0.69990827  0.68619842    -0.21900
C1447       C  0.25124120  0.71190507  0.70286731    -0.10000
C1448       C  0.22031347  0.73098057  0.67136467     0.28900
F1449       F  0.17852879  0.74178838  0.68344513    -0.20500
H1450       H  0.20649327  0.74846804  0.60184183     0.17300
H1451       H  0.31527799  0.67978705  0.70627372     0.17300
F1452       F  0.34647559  0.69737653  0.62841923    -0.20500
C1453       C  0.31401414  0.75205783  0.24640793    -0.21900
C1454       C  0.30112592  0.79307350  0.26386444    -0.10000
C1455       C  0.33235311  0.82744300  0.26339915     0.28900
C1456       C  0.37699234  0.81820284  0.25409647    -0.21900
C1457       C  0.39052279  0.77372546  0.25409980    -0.10000
C1458       C  0.35897042  0.74259636  0.24069704     0.28900
F1459       F  0.37137300  0.70014306  0.23378591    -0.20500
H1460       H  0.29026324  0.72620236  0.24042180     0.17300
H1461       H  0.40200801  0.84371238  0.25725287     0.17300
F1462       F  0.31958081  0.86852019  0.27458154    -0.20500
C1463       C  0.20566113  0.90442153  0.23971106    -0.21900
C1464       C  0.21795275  0.87356979  0.27461172    -0.10000
C1465       C  0.22463151  0.88920952  0.31836689     0.28900
C1466       C  0.22873207  0.93465876  0.32388158    -0.21900
C1467       C  0.23643270  0.96103335  0.28491943    -0.10000
C1468       C  0.21434740  0.94928161  0.24519825     0.28900
F1469       F  0.21535491  0.97697480  0.20802777    -0.20500
H1470       H  0.19561415  0.89372285  0.20660222     0.17300
H1471       H  0.23959879  0.94580658  0.35663355     0.17300
F1472       F  0.23121047  0.86145163  0.35464042    -0.20500
C1473       C  0.24407620  0.66375850  0.28626019    -0.21900
C1474       C  0.21505234  0.69308438  0.26217021    -0.10000
C1475       C  0.19894704  0.67932872  0.21972228     0.28900
C1476       C  0.21267302  0.63973013  0.20167862    -0.21900
C1477       C  0.23303693  0.60749180  0.22964089    -0.10000
C1478       C  0.25239010  0.62106354  0.27062805     0.28900
F1479       F  0.27395651  0.59104883  0.29823433    -0.20500
H1480       H  0.25836078  0.67292657  0.31833706     0.17300
H1481       H  0.19739014  0.63033037  0.17005600     0.17300
F1482       F  0.16491946  0.70010618  0.19791852    -0.20500
C1483       C  0.27355233  0.77205702  0.37913554    -0.21900
C1484       C  0.23431508  0.76618114  0.35300578    -0.10000
C1485       C  0.19298954  0.77628295  0.37297907     0.28900
C1486       C  0.19143921  0.78099124  0.41950135    -0.21900
C1487       C  0.22855767  0.76575616  0.44405767    -0.10000
C1488       C  0.26971055  0.77815221  0.42541277     0.28900
F1489       F  0.30703509  0.77813516  0.45176229    -0.20500
H1490       H  0.30626434  0.77088885  0.36412345     0.17300
H1491       H  0.15933257  0.78358161  0.43551936     0.17300
F1492       F  0.15516236  0.78271193  0.34879245    -0.20500
C1493       C  0.05680963  0.64955143  0.97982693    -0.21900
C1494       C  0.02107676  0.67420724  0.99421576    -0.10000
C1495       C  0.97799073  0.66008477  0.98235835     0.28900
C1496       C  0.97020718  0.61473960  0.97613861    -0.21900
C1497       C  0.00678489  0.58613915  0.97457977    -0.10000
C1498       C  0.04938270  0.60575633  0.96853494     0.28900
F1499       F  0.08323069  0.58359122  0.95053845    -0.20500
H1500       H  0.09069534  0.66167877  0.98339390     0.17300
H1501       H  0.93653384  0.60177898  0.97479247     0.17300
F1502       F  0.94373457  0.68895747  0.98458810    -0.20500
C1503       C  0.89330698  0.69898131  0.25714672    -0.21900
C1504       C  0.92451090  0.73102139  0.24517404    -0.10000
C1505       C  0.91338932  0.77558664  0.25148915     0.28900
C1506       C  0.86842400  0.78783130  0.25280863    -0.21900
C1507       C  0.83472774  0.75530792  0.25022509    -0.10000
C1508       C  0.84869870  0.71012659  0.25209955     0.28900
F1509       F  0.82142315  0.67586795  0.24394684    -0.20500
H1510       H  0.90212500  0.66421261  0.25513365     0.17300
H1511       H  0.86011385  0.82272084  0.25302165     0.17300
F1512       F  0.94490334  0.80769934  0.24653888    -0.20500
C1513       C  0.06116754  0.81144178  0.26517554    -0.21900
C1514       C  0.04121707  0.77282448  0.25049337    -0.10000
C1515       C  0.05920053  0.73312138  0.26902814     0.28900
C1516       C  0.10556595  0.73080939  0.27202331    -0.21900
C1517       C  0.13028317  0.77007447  0.26394206    -0.10000
C1518       C  0.10745293  0.81126817  0.26663900     0.28900
F1519       F  0.12854334  0.85095285  0.26709709    -0.20500
H1520       H  0.04420015  0.84301395  0.26075026     0.17300
H1521       H  0.12145714  0.69873373  0.27621395     0.17300
F1522       F  0.03494241  0.69507935  0.26966702    -0.20500
C1523       C  0.21111227  0.72997089  0.88212986    -0.21900
C1524       C  0.25726032  0.73472419  0.87278434    -0.10000
C1525       C  0.28740546  0.72386546  0.90862063     0.28900
C1526       C  0.27121699  0.71837284  0.95259961    -0.21900
C1527       C  0.22809936  0.73401349  0.95986470    -0.10000
C1528       C  0.19688216  0.72426679  0.92658208     0.28900
F1529       F  0.15264939  0.72634160  0.93546175    -0.20500
H1530       H  0.18570171  0.73495733  0.85698700     0.17300
H1531       H  0.29504533  0.71664350  0.98038302     0.17300
F1532       F  0.33191710  0.72379442  0.90269771    -0.20500
C1533       C  0.28377837  0.80897378  0.14424930    -0.21900
C1534       C  0.26359823  0.78590612  0.11022919    -0.10000
C1535       C  0.22112258  0.76740596  0.11610667     0.28900
C1536       C  0.19782898  0.77629611  0.15535516    -0.21900
C1537       C  0.21667174  0.80408851  0.18755029    -0.10000
C1538       C  0.25785829  0.82487542  0.17732089     0.28900
F1539       F  0.27358981  0.86105421  0.19816739    -0.20500
H1540       H  0.31720445  0.82188670  0.14089408     0.17300
H1541       H  0.16384811  0.76514229  0.15881767     0.17300
F1542       F  0.20069732  0.74559343  0.08228568    -0.20500
C1543       C  0.35658011  0.99972025  0.01565311    -0.21900
C1544       C  0.35315245  0.97929885  0.97396885    -0.10000
C1545       C  0.39160011  0.97568799  0.94828097     0.28900
C1546       C  0.43266935  0.97512691  0.97056075    -0.21900
C1547       C  0.43622311  0.98588729  0.01650962    -0.10000
C1548       C  0.39787660  0.00108986  0.03790905     0.28900
F1549       F  0.40016640  0.01560762  0.08064854    -0.20500
H1550       H  0.32678489  0.00569460  0.03479574     0.17300
H1551       H  0.46086194  0.96317880  0.95239644     0.17300
F1552       F  0.38880768  0.95910781  0.90627636    -0.20500
C1553       C  0.10360195  0.69277160  0.77477863    -0.21900
C1554       C  0.07865576  0.72912483  0.75916477    -0.10000
C1555       C  0.09503178  0.77158312  0.76896179     0.28900
C1556       C  0.14124276  0.77778379  0.77306010    -0.21900
C1557       C  0.16922043  0.74058078  0.77509974    -0.10000
C1558       C  0.14893346  0.69871337  0.78354587     0.28900
F1559       F  0.17187886  0.66448648  0.80242465    -0.20500
H1560       H  0.09007910  0.65942188  0.77361896     0.17300
H1561       H  0.15510554  0.81099220  0.77223962     0.17300
F1562       F  0.06799768  0.80726042  0.76289646    -0.20500
C1563       C  0.00413676  0.68457554  0.48232077    -0.21900
C1564       C  0.96360377  0.69484476  0.50263002    -0.10000
C1565       C  0.92776684  0.66616646  0.49537184     0.28900
C1566       C  0.93740116  0.62127271  0.49232777    -0.21900
C1567       C  0.98229244  0.60748493  0.49003376    -0.10000
C1568       C  0.01500482  0.63979593  0.47946988     0.28900
F1569       F  0.05786492  0.62836492  0.47163665    -0.20500
H1570       H  0.03098368  0.70875511  0.48149481     0.17300
H1571       H  0.91030212  0.59780401  0.49572762     0.17300
F1572       F  0.88565220  0.67838657  0.50555327    -0.20500
C1573       C  0.85055295  0.79587707  0.72809939    -0.21900
C1574       C  0.84270362  0.75089010  0.74092028    -0.10000
C1575       C  0.87601000  0.72877164  0.76724921     0.28900
C1576       C  0.91637371  0.75081738  0.77636665    -0.21900
C1577       C  0.92505669  0.79175598  0.75327848    -0.10000
C1578       C  0.88825350  0.81811185  0.74285892     0.28900
F1579       F  0.89388127  0.86134667  0.72940453    -0.20500
H1580       H  0.82916036  0.81378713  0.70500147     0.17300
H1581       H  0.94372537  0.73179234  0.79127473     0.17300
F1582       F  0.86988049  0.68655624  0.78341113    -0.20500
C1583       C  0.90489831  0.96758088  0.56286854    -0.21900
C1584       C  0.91090170  0.97807150  0.51625393    -0.10000
C1585       C  0.87693847  0.00267151  0.49361348     0.28900
C1586       C  0.83920586  0.01555851  0.51723356    -0.21900
C1587       C  0.83028441  0.99251362  0.55830405    -0.10000
C1588       C  0.86735282  0.98195937  0.58522478     0.28900
F1589       F  0.86213805  0.96993742  0.62947688    -0.20500
H1590       H  0.92710496  0.94599452  0.58188163     0.17300
H1591       H  0.81182164  0.03034322  0.49789343     0.17300
F1592       F  0.87849751  0.01112072  0.44837717    -0.20500
C1593       C  0.09070309  0.99352908  0.45695110    -0.21900
C1594       C  0.08012102  0.99367357  0.50337713    -0.10000
C1595       C  0.11323642  0.97860305  0.53455117     0.28900
C1596       C  0.15658829  0.97158205  0.51924965    -0.21900
C1597       C  0.16719726  0.98864732  0.47574900    -0.10000
C1598       C  0.13386945  0.98551720  0.44316403     0.28900
F1599       F  0.14362631  0.98948446  0.39855303    -0.20500
H1600       H  0.06670638  0.99904261  0.43128164     0.17300
H1601       H  0.18289493  0.96596778  0.54415255     0.17300
F1602       F  0.10449934  0.97286094  0.57920528    -0.20500
C1603       C  0.00841603  0.93831901  0.62224193    -0.21900
C1604       C  0.00439158  0.97332419  0.59027245    -0.10000
C1605       C  0.99035893  0.01495455  0.60582733     0.28900
C1606       C  0.99573145  0.02464127  0.65101055    -0.21900
C1607       C  0.01317093  0.99204301  0.68019413    -0.10000
C1608       C  0.00772416  0.94751653  0.66799184     0.28900
F1609       F  0.01420628  0.91399207  0.69896909    -0.20500
H1610       H  0.01393036  0.90484635  0.61192368     0.17300
H1611       H  0.99296320  0.05867716  0.66120766     0.17300
F1612       F  0.96934340  0.04512989  0.57896471    -0.20500
C1613       C  0.94856620  0.08551883  0.49237376    -0.21900
C1614       C  0.99294916  0.07100644  0.49847762    -0.10000
C1615       C  0.02295651  0.09927042  0.52105852     0.28900
C1616       C  0.00951117  0.14228532  0.53087226    -0.21900
C1617       C  0.96803273  0.15754977  0.51426077    -0.10000
C1618       C  0.93482046  0.12600755  0.50794229     0.28900
F1619       F  0.89224614  0.13915109  0.49880311    -0.20500
H1620       H  0.92473724  0.06709516  0.47381200     0.17300
H1621       H  0.03442835  0.16584321  0.54179929     0.17300
F1622       F  0.06523242  0.08652894  0.53154238    -0.20500
C1623       C  0.04450908  0.89101763  0.48814569    -0.21900
C1624       C  0.99921991  0.89819367  0.49840823    -0.10000
C1625       C  0.96927019  0.86308998  0.49075251     0.28900
C1626       C  0.98611881  0.82026014  0.48669046    -0.21900
C1627       C  0.03165136  0.81394112  0.49577749    -0.10000
C1628       C  0.05976016  0.84825639  0.48163621     0.28900
F1629       F  0.10430549  0.84109294  0.47917889    -0.20500
H1630       H  0.06905015  0.91625884  0.48871041     0.17300
H1631       H  0.96323993  0.79236495  0.48827548     0.17300
F1632       F  0.92480505  0.86961374  0.48993169    -0.20500
C1633       C  0.73370900  0.92311677  0.23330248    -0.21900
C1634       C  0.76003049  0.92866609  0.19494794    -0.10000
C1635       C  0.76764554  0.89056495  0.17056943     0.28900
C1636       C  0.77319470  0.85055562  0.19532756    -0.21900
C1637       C  0.76308438  0.84816499  0.24189602    -0.10000
C1638       C  0.74306964  0.88557416  0.26074741     0.28900
F1639       F  0.74175679  0.88980664  0.30611201    -0.20500
H1640       H  0.72257120  0.95252878  0.24983278     0.17300
H1641       H  0.78757705  0.82274204  0.17865203     0.17300
F1642       F  0.78418281  0.89429791  0.12813189    -0.20500
C1643       C  0.76150276  0.12762450  0.20076737    -0.21900
C1644       C  0.76682292  0.16394153  0.22876045    -0.10000
C1645       C  0.74652081  0.15988594  0.27157174     0.28900
C1646       C  0.73781185  0.11760594  0.29043409    -0.21900
C1647       C  0.75097804  0.08086459  0.26659756    -0.10000
C1648       C  0.74826188  0.08633048  0.21948326     0.28900
F1649       F  0.74879284  0.05017543  0.19353462    -0.20500
H1650       H  0.76974301  0.13078781  0.16570014     0.17300
H1651       H  0.72791488  0.11384043  0.32539178     0.17300
F1652       F  0.73057143  0.19515927  0.29251727    -0.20500
C1653       C  0.01333425  0.01396461  0.34399121    -0.21900
C1654       C  0.99911622  0.97331203  0.32728297    -0.10000
C1655       C  0.99740315  0.93740892  0.35821820     0.28900
C1656       C  0.98305878  0.94608422  0.40154993    -0.21900
C1657       C  0.98393820  0.98979243  0.41723484    -0.10000
C1658       C  0.00150148  0.02378932  0.38802314     0.28900
F1659       F  0.00823144  0.06565589  0.40200401    -0.20500
H1660       H  0.02215119  0.04104993  0.32070763     0.17300
H1661       H  0.96954649  0.91879557  0.42116242     0.17300
F1662       F  0.99333375  0.89548838  0.34328029    -0.20500
C1663       C  0.17352666  0.34467153  0.79958955    -0.21900
C1664       C  0.18699237  0.31026816  0.77209122    -0.10000
C1665       C  0.16280746  0.30469189  0.73134385     0.28900
C1666       C  0.12073504  0.32364636  0.72539141    -0.21900
C1667       C  0.10247545  0.34540744  0.76142773    -0.10000
C1668       C  0.13308448  0.36626275  0.79019565     0.28900
F1669       F  0.11913576  0.39773473  0.81832134    -0.20500
H1670       H  0.19410937  0.35463139  0.82770469     0.17300
H1671       H  0.09975602  0.31386310  0.69742017     0.17300
F1672       F  0.17970167  0.28288456  0.69685898    -0.20500
C1673       C  0.94609917  0.36058814  0.97506051    -0.21900
C1674       C  0.97689576  0.32825658  0.98896870    -0.10000
C1675       C  0.01728352  0.34325481  0.00752751     0.28900
C1676       C  0.03384299  0.38462380  0.99235843    -0.21900
C1677       C  0.00735567  0.41373153  0.96526580    -0.10000
C1678       C  0.96289494  0.40002008  0.95601601     0.28900
F1679       F  0.93796371  0.41967939  0.92279596    -0.20500
H1680       H  0.91303462  0.35044879  0.96416557     0.17300
H1681       H  0.06875790  0.39138359  0.99740045     0.17300
F1682       F  0.04590493  0.31345921  0.02728757    -0.20500
C1683       C  0.88741396  0.23117358  0.73422210    -0.21900
C1684       C  0.90437062  0.19306667  0.75645162    -0.10000
C1685       C  0.87304292  0.16284005  0.77399316     0.28900
C1686       C  0.83328530  0.17979025  0.79056171    -0.21900
C1687       C  0.81918153  0.22321075  0.77849955    -0.10000
C1688       C  0.84902046  0.24991522  0.75193094     0.28900
F1689       F  0.84113240  0.29339052  0.74151913    -0.20500
H1690       H  0.91008032  0.25301091  0.71570190     0.17300
H1691       H  0.81514931  0.15980565  0.81469312     0.17300
F1692       F  0.88619442  0.12142869  0.78773527    -0.20500
C1693       C  0.87358053  0.99262223  0.94803596    -0.21900
C1694       C  0.90436952  0.02595734  0.93394267    -0.10000
C1695       C  0.89373907  0.05040513  0.89342153     0.28900
C1696       C  0.85225889  0.04449714  0.87217748    -0.21900
C1697       C  0.81904853  0.02300873  0.89760864    -0.10000
C1698       C  0.83347622  0.98669123  0.92437920     0.28900
F1699       F  0.80288347  0.95780959  0.94205086    -0.20500
H1700       H  0.87660732  0.97588142  0.97908296     0.17300
H1701       H  0.84282188  0.06774717  0.84507300     0.17300
F1702       F  0.91961581  0.08422900  0.87795871    -0.20500
C1703       C  0.98665735  0.00776779  0.79468950    -0.21900
C1704       C  0.99954909  0.96313470  0.79545392    -0.10000
C1705       C  0.98171628  0.93656891  0.83007712     0.28900
C1706       C  0.97812515  0.95576150  0.87191885    -0.21900
C1707       C  0.98840502  0.00138878  0.87593521    -0.10000
C1708       C  0.98634366  0.02822536  0.83609921     0.28900
F1709       F  0.98988114  0.07280352  0.83671295    -0.20500
H1710       H  0.98976585  0.02841194  0.76432741     0.17300
H1711       H  0.97182520  0.93412917  0.90031874     0.17300
F1712       F  0.98371482  0.89169484  0.82809206    -0.20500
C1713       C  0.99988956  0.84574077  0.96851849    -0.21900
C1714       C  0.95908335  0.83323596  0.98831898    -0.10000
C1715       C  0.92542871  0.86476610  0.98818019     0.28900
C1716       C  0.93863694  0.90831206  0.99348567    -0.21900
C1717       C  0.98197503  0.92269557  0.98205531    -0.10000
C1718       C  0.01220301  0.89059828  0.96700329     0.28900
F1719       F  0.05427957  0.90150787  0.95440082    -0.20500
H1720       H  0.02542595  0.82106778  0.96392430     0.17300
H1721       H  0.91640800  0.92868128  0.01008211     0.17300
F1722       F  0.88317970  0.85291983  0.99975278    -0.20500
C1723       C  0.12345897  0.99428530  0.03175675    -0.21900
C1724       C  0.15781600  0.98459472  0.00240156    -0.10000
C1725       C  0.15043937  0.99289797  0.95599084     0.28900
C1726       C  0.10688544  0.99253553  0.93887475    -0.21900
C1727       C  0.07089920  0.99420826  0.96833935    -0.10000
C1728       C  0.08073464  0.00234689  0.01412710     0.28900
F1729       F  0.05044880  0.02040519  0.04095706    -0.20500
H1730       H  0.12886659  0.99292815  0.06798851     0.17300
H1731       H  0.10115771  0.99149012  0.90302318     0.17300
F1732       F  0.18548009  0.99476095  0.92757638    -0.20500
C1733       C  0.93773615  0.05105483  0.05625855    -0.21900
C1734       C  0.95640987  0.01091936  0.04331368    -0.10000
C1735       C  0.97880991  0.98442878  0.07697069     0.28900
C1736       C  0.98586389  0.00013548  0.11991236    -0.21900
C1737       C  0.96784608  0.04065878  0.13216381    -0.10000
C1738       C  0.94617944  0.06741438  0.09887237     0.28900
F1739       F  0.92755322  0.10658066  0.10917008    -0.20500
H1740       H  0.91608504  0.06991402  0.03347050     0.17300
H1741       H  0.00217164  0.97848877  0.14500207     0.17300
F1742       F  0.99623824  0.94418006  0.06876316    -0.20500
C1743       C  0.98830501  0.11942793  0.98742616    -0.21900
C1744       C  0.00930118  0.08952138  0.95898831    -0.10000
C1745       C  0.05532148  0.09697096  0.95006305     0.28900
C1746       C  0.07755709  0.13316394  0.96798099    -0.21900
C1747       C  0.05103302  0.16844366  0.98016516    -0.10000
C1748       C  0.01147573  0.15658831  0.00267108     0.28900
F1749       F  0.98841692  0.18802377  0.02420970    -0.20500
H1750       H  0.95307690  0.11733662  0.99358137     0.17300
H1751       H  0.11128561  0.13980521  0.95674173     0.17300
F1752       F  0.07701747  0.07503937  0.91811727    -0.20500
loop_ 
_geom_bond_atom_site_label_1 
_geom_bond_atom_site_label_2 
_geom_bond_distance 
_geom_bond_site_symmetry_2 
_ccdc_geom_bond_type 
C1            C2   1.414       .  A
C1            C6   1.426       .  A
C1         C1694   1.510       .  S
C2            C3   1.397   1_655  A
C2         C1744   1.505   1_655  S
C3            C4   1.408   1_545  A
C3         C1707   1.490   1_455  S
C4            C5   1.408   1_455  A
C4         C1727   1.495       .  S
C5            C6   1.420   1_565  A
C5         C1717   1.495       .  S
C6         C1734   1.496   1_556  S
O7           C15   1.278       .  A
O7          Co27   2.053       .  S
O8           C16   1.280       .  A
O8          Co28   2.035       .  S
O9           C17   1.242       .  A
O9          Co29   1.972       .  S
O10          C18   1.259       .  A
O10         Co30   1.952       .  S
O11          C17   1.247       .  A
O11         Co28   1.921       .  S
O12          C18   1.274       .  A
O12         Co27   1.972       .  S
O13          C16   1.295       .  A
O13         Co30   2.095   1_655  S
O14          C15   1.292       .  A
O14         Co29   2.098   1_455  S
C15         C591   1.576       .  S
C16         C242   1.562       .  S
C17        C1684   1.455       .  S
C18        C1667   1.458       .  S
O19          C32   1.308       .  A
O19         Co27   2.143       .  S
O20          C33   1.297       .  A
O20         Co28   2.012       .  S
O21          C34   1.256       .  A
O21         Co29   1.925   1_455  S
O22          C35   1.248   1_455  A
O22         Co30   1.943       .  S
O23          C35   1.259       .  A
O23         Co28   1.993       .  S
O24          C34   1.276       .  A
O24         Co27   2.018       .  S
O25          C32   1.283       .  A
O25         Co30   1.959       .  S
O26          C33   1.314       .  A
O26         Co29   2.090       .  S
Co27         O31   2.116       .  S
Co28         O31   2.055   1_655  S
Co29         O31   2.078   1_655  S
Co30         O31   1.954       .  S
C32         C306   1.548       .  S
C33         C673   1.546       .  S
C34        C1747   1.477       .  S
C35        C1674   1.468       .  S
O36          C44   1.284       .  A
O36         Co56   2.049       .  S
O37          C45   1.326       .  A
O37         Co57   2.180       .  S
O38          C46   1.247       .  A
O38         Co58   1.970       .  S
O39          C47   1.266       .  A
O39         Co59   1.952       .  S
O40          C46   1.255       .  A
O40         Co57   1.926       .  S
O41          C47   1.284       .  A
O41         Co56   2.013       .  S
O42          C45   1.284       .  A
O42         Co59   1.953   1_565  S
O43          C44   1.287       .  A
O43         Co58   2.070   1_545  S
C44         C690   1.556       .  S
C45         C731   1.557       .  S
C46        C1634   1.461       .  S
C47        C1647   1.459       .  S
O48          C61   1.282       .  A
O48         Co56   2.059       .  S
O49          C62   1.322       .  A
O49         Co57   2.159       .  S
O50          C63   1.254       .  A
O50         Co58   1.947   1_545  S
O51          C64   1.263   1_545  A
O51         Co59   1.950       .  S
O52          C64   1.252       .  A
O52         Co57   1.952       .  S
O53          C63   1.271       .  A
O53         Co56   2.015       .  S
O54          C61   1.295       .  A
O54         Co59   2.124       .  S
O55          C62   1.285       .  A
O55         Co58   1.969       .  S
Co56         O60   2.020       .  S
Co57         O60   2.111   1_565  S
Co58         O60   1.982   1_565  S
Co59         O60   1.968       .  S
C61         C271   1.583       .  S
C62         C137   1.555       .  S
C63        C1737   1.470       .  S
C64        C1654   1.452       .  S
C65          C66   1.410       .  A
C65          C70   1.402   1_545  A
C65        C1594   1.485   1_545  S
C66          C67   1.414   1_445  A
C66        C1614   1.488   1_455  S
C67          C68   1.418       .  A
C67        C1657   1.490       .  S
C68          C69   1.403       .  A
C68        C1584   1.500       .  S
C69          C70   1.408   1_655  A
C69        C1624   1.485       .  S
C70        C1604   1.483       .  S
O71          C79   1.288       .  A
O71         Co91   2.112       .  S
O72          C80   1.290       .  A
O72         Co92   2.001       .  S
O73          C81   1.288       .  A
O73         Co93   2.011       .  S
O74          C82   1.260       .  A
O74         Co94   1.986       .  S
O75          C81   1.266       .  A
O75         Co92   1.924       .  S
O76          C82   1.257       .  A
O76         Co91   1.946       .  S
O77          C80   1.315       .  A
O77         Co94   2.138   1_655  S
O78          C79   1.270       .  A
O78         Co93   2.029   1_455  S
C79         C592   1.565       .  S
C80         C243   1.564       .  S
C81        C1577   1.466       .  S
C82        C1554   1.460       .  S
O83          C96   1.279       .  A
O83         Co91   1.917       .  S
O84          C97   1.290       .  A
O84         Co92   2.087       .  S
O85          C98   1.293       .  A
O85         Co93   2.020   1_455  S
O86          C99   1.265   1_455  A
O86         Co94   1.970       .  S
O87          C99   1.255       .  A
O87         Co92   1.962       .  S
O88          C98   1.259       .  A
O88         Co91   1.923       .  S
O89          C96   1.316       .  A
O89         Co94   2.141       .  S
O90          C97   1.278       .  A
O90         Co93   2.069       .  S
Co91         O95   1.967       .  S
Co92         O95   1.961   1_655  S
Co93         O95   1.968   1_655  S
Co94         O95   2.096       .  S
C96         C172   1.515       .  S
C97         C748   1.581       .  S
C98        C1627   1.454       .  S
C99        C1564   1.463       .  S
O100        C108   1.267       .  A
O100       Co120   2.027       .  S
O101        C109   1.292       .  A
O101       Co121   2.056       .  S
O102        C110   1.248       .  A
O102       Co122   1.939       .  S
O103        C111   1.243       .  A
O103       Co123   1.969       .  S
O104        C110   1.271       .  A
O104       Co121   1.984       .  S
O105        C111   1.306       .  A
O105       Co120   2.010       .  S
O106        C109   1.295       .  A
O106       Co123   2.109   1_556  S
O107        C108   1.285       .  A
O107       Co122   2.083   1_554  S
C108        C154   1.555       .  S
C109        C207   1.585       .  S
C110       C1527   1.465       .  S
C111       C1534   1.429       .  S
O112        C125   1.273       .  A
O112       Co120   2.018       .  S
O113        C126   1.310       .  A
O113       Co121   2.146       .  S
O114        C127   1.253   1_556  A
O114       Co122   1.940       .  S
O115        C128   1.270       .  A
O115       Co123   1.966   1_556  S
O116        C128   1.260       .  A
O116       Co121   1.953       .  S
O117        C127   1.273       .  A
O117       Co120   2.030       .  S
O118        C125   1.290       .  A
O118       Co123   2.124       .  S
O119        C126   1.284       .  A
O119       Co122   2.003       .  S
Co120       O124   2.132       .  S
Co121       O124   2.061   1_556  S
Co122       O124   2.003   1_556  S
Co123       O124   2.224       .  S
C125        C370   1.573       .  S
C126        C574   1.565       .  S
C127       C1724   1.473       .  S
C128       C1544   1.445       .  S
O129        C137   1.274       .  A
O129       Co149   2.009   1_655  S
O130        C138   1.299       .  A
O130       Co150   2.009   1_455  S
O131        C139   1.271       .  A
O131       Co151   1.970       .  S
O132        C140   1.270       .  A
O132       Co152   1.962       .  S
O133        C139   1.262       .  A
O133       Co150   1.965       .  S
O134        C140   1.264       .  A
O134       Co149   1.965       .  S
O135        C138   1.307       .  A
O135       Co152   2.067       .  S
O136        C137   1.288       .  A
O136       Co151   2.106       .  S
C138        C760   1.528       .  S
C139       C1504   1.451       .  S
C140       C1514   1.474       .  S
O141        C154   1.276       .  A
O141       Co149   2.023       .  S
O142        C155   1.291       .  A
O142       Co150   2.101       .  S
O143        C156   1.276       .  A
O143       Co151   1.979       .  S
O144        C157   1.250       .  A
O144       Co152   1.967       .  S
O145        C157   1.257       .  A
O145       Co150   1.972   1_455  S
O146        C156   1.265   1_455  A
O146       Co149   1.951       .  S
O147        C154   1.296       .  A
O147       Co152   2.097       .  S
O148        C155   1.275       .  A
O148       Co151   2.020       .  S
Co149       O153   1.987   1_455  S
Co150       O153   2.038       .  S
Co151       O153   2.035       .  S
Co152       O153   2.050   1_455  S
C155        C638   1.547       .  S
C156       C1714   1.463   1_554  S
C157       C1494   1.457   1_554  S
C158        C159   1.381       .  A
C158        C163   1.400       .  A
C158       C1464   1.472       .  S
C159        C160   1.407       .  A
C159       C1537   1.486       .  S
C160        C161   1.419       .  A
C160       C1517   1.473       .  S
C161        C162   1.421       .  A
C161       C1474   1.514       .  S
C162        C163   1.388       .  A
C162       C1484   1.463       .  S
C163       C1454   1.488       .  S
O164        C172   1.271       .  A
O164       Co184   2.016       .  S
O165        C173   1.313       .  A
O165       Co185   2.159       .  S
O166        C174   1.267       .  A
O166       Co186   1.961       .  S
O167        C175   1.268       .  A
O167       Co187   1.947       .  S
O168        C174   1.265       .  A
O168       Co185   1.964       .  S
O169        C175   1.271       .  A
O169       Co184   1.969       .  S
O170        C173   1.285       .  A
O170       Co187   2.025       .  S
O171        C172   1.271       .  A
O171       Co186   2.050       .  S
C173        C405   1.586       .  S
C174       C1444   1.446       .  S
C175       C1487   1.474       .  S
O176        C189   1.263       .  A
O176       Co184   2.020       .  S
O177        C190   1.297       .  A
O177       Co185   2.124       .  S
O178        C191   1.251       .  A
O178       Co186   1.926       .  S
O179        C192   1.252       .  A
O179       Co187   1.935       .  S
O180        C192   1.275       .  A
O180       Co185   1.969       .  S
O181        C191   1.279       .  A
O181       Co184   1.995       .  S
O182        C189   1.278       .  A
O182       Co187   2.063       .  S
O183        C190   1.260       .  A
O183       Co186   1.970       .  S
Co184       O188   2.049       .  S
Co185       O188   2.114       .  S
Co186       O188   2.033       .  S
Co187       O188   2.007       .  S
C189        C777   1.540       .  S
C190        C702   1.540       .  S
C191       C1437   1.445       .  S
C192       C1427   1.461       .  S
C193        C194   1.411       .  A
C193        C198   1.411       .  A
C193       C1394   1.493       .  S
C194        C195   1.425       .  A
C194       C1557   1.491       .  S
C195        C196   1.427       .  A
C195       C1447   1.508       .  S
C196        C197   1.411       .  A
C196       C1404   1.499       .  S
C197        C198   1.408       .  A
C197       C1414   1.506       .  S
C198       C1524   1.499       .  S
O199        C207   1.276       .  A
O199       Co219   2.033       .  S
O200        C208   1.333       .  A
O200       Co220   2.208       .  S
O201        C209   1.251       .  A
O201       Co221   1.961       .  S
O202        C210   1.264       .  A
O202       Co222   1.938       .  S
O203        C209   1.260       .  A
O203       Co220   1.965       .  S
O204        C210   1.285       .  A
O204       Co219   2.004       .  S
O205        C208   1.275       .  A
O205       Co222   1.917       .  S
O206        C207   1.307       .  A
O206       Co221   2.140       .  S
C208        C639   1.553       .  S
C209       C1364   1.453       .  S
C210       C1384   1.444   1_556  S
O211        C224   1.267       .  A
O211       Co219   2.016       .  S
O212        C225   1.313       .  A
O212       Co220   2.096       .  S
O213        C226   1.256       .  A
O213       Co221   1.949       .  S
O214        C227   1.254       .  A
O214       Co222   1.951       .  S
O215        C227   1.245       .  A
O215       Co220   1.957       .  S
O216        C226   1.273       .  A
O216       Co219   1.998       .  S
O217        C224   1.288       .  A
O217       Co222   2.089       .  S
O218        C225   1.307       .  A
O218       Co221   2.040       .  S
Co219       O223   2.012       .  S
Co220       O223   2.108       .  S
Co221       O223   1.977       .  S
Co222       O223   1.957       .  S
C224        C434   1.549       .  S
C225        C719   1.567       .  S
C226       C1417   1.479       .  S
C227       C1377   1.445       .  S
C228        C229   1.428       .  A
C228        C233   1.397       .  A
C228       C1327   1.519       .  S
C229        C230   1.420       .  A
C229       C1687   1.513       .  S
C230        C231   1.427       .  A
C230       C1357   1.495       .  S
C231        C232   1.399       .  A
C231       C1347   1.490       .  S
C232        C233   1.403       .  A
C232       C1334   1.492       .  S
C233       C1317   1.485       .  S
O234        C242   1.298       .  A
O234       Co254   2.105       .  S
O235        C243   1.275       .  A
O235       Co255   2.070       .  S
O236        C244   1.254       .  A
O236       Co256   1.921       .  S
O237        C245   1.252       .  A
O237       Co257   1.932       .  S
O238        C244   1.283       .  A
O238       Co255   1.984       .  S
O239        C245   1.275       .  A
O239       Co254   1.974       .  S
O240        C243   1.278       .  A
O240       Co257   2.062       .  S
O241        C242   1.280       .  A
O241       Co256   2.029       .  S
C244       C1284   1.437       .  S
C245       C1294   1.464   1_655  S
O246        C259   1.293       .  A
O246       Co254   2.081       .  S
O247        C260   1.288       .  A
O247       Co255   2.063       .  S
O248        C261   1.263       .  A
O248       Co256   1.957       .  S
O249        C262   1.269       .  A
O249       Co257   1.938       .  S
O250        C262   1.285       .  A
O250       Co255   2.011       .  S
O251        C261   1.257       .  A
O251       Co254   1.956       .  S
O252        C259   1.282       .  A
O252       Co257   2.002       .  S
O253        C260   1.278       .  A
O253       Co256   2.041       .  S
Co254       O258   2.055       .  S
Co255       O258   2.025       .  S
Co256       O258   2.024       .  S
Co257       O258   1.990       .  S
C259        C656   1.534       .  S
C260        C603   1.538       .  S
C261       C1354   1.443       .  S
C262       C1307   1.480       .  S
O263        C271   1.307       .  A
O263       Co283   2.061   1_655  S
O264        C272   1.283       .  A
O264       Co284   1.960   1_455  S
O265        C273   1.266       .  A
O265       Co285   1.951       .  S
O266        C274   1.276       .  A
O266       Co286   1.987       .  S
O267        C273   1.259       .  A
O267       Co284   1.967       .  S
O268        C274   1.260       .  A
O268       Co283   1.932       .  S
O269        C272   1.321       .  A
O269       Co286   2.192       .  S
O270        C271   1.320       .  A
O270       Co285   2.104       .  S
C272        C761   1.576       .  S
C273       C1267   1.462       .  S
C274       C1274   1.447       .  S
O275        C288   1.289       .  A
O275       Co283   2.079       .  S
O276        C289   1.292       .  A
O276       Co284   2.074       .  S
O277        C290   1.246       .  A
O277       Co285   1.951       .  S
O278        C291   1.266       .  A
O278       Co286   1.974       .  S
O279        C291   1.262   1_655  A
O279       Co284   1.924       .  S
O280        C290   1.257       .  A
O280       Co283   1.961   1_655  S
O281        C288   1.281       .  A
O281       Co286   2.065       .  S
O282        C289   1.291       .  A
O282       Co285   2.057       .  S
Co283       O287   2.053       .  S
Co284       O287   1.961   1_655  S
Co285       O287   2.032   1_655  S
Co286       O287   2.097       .  S
C288        C498   1.562       .  S
C289        C621   1.557       .  S
C290       C1617   1.449       .  S
C291       C1254   1.452       .  S
C292        C293   1.405       .  A
C292        C297   1.406       .  A
C292       C1207   1.477       .  S
C293        C294   1.399       .  A
C293       C1277   1.479       .  S
C294        C295   1.398       .  A
C294       C1214   1.482       .  S
C295        C296   1.400       .  A
C295       C1234   1.470       .  S
C296        C297   1.407       .  A
C296       C1224   1.489       .  S
C297       C1247   1.494       .  S
O298        C306   1.295       .  A
O298       Co318   2.086   1_556  S
O299        C307   1.276       .  A
O299       Co319   2.079   1_554  S
O300        C308   1.273       .  A
O300       Co320   1.942       .  S
O301        C309   1.258       .  A
O301       Co321   1.951       .  S
O302        C308   1.285       .  A
O302       Co319   2.005       .  S
O303        C309   1.253       .  A
O303       Co318   1.981       .  S
O304        C307   1.272       .  A
O304       Co321   2.040       .  S
O305        C306   1.293       .  A
O305       Co320   2.025       .  S
C307        C469   1.551       .  S
C308       C1197   1.472       .  S
C309       C1244   1.463       .  S
O310        C323   1.270       .  A
O310       Co318   2.027       .  S
O311        C324   1.280       .  A
O311       Co319   2.051       .  S
O312        C325   1.258       .  A
O312       Co320   1.987       .  S
O313        C326   1.261       .  A
O313       Co321   1.971       .  S
O314        C326   1.269       .  A
O314       Co319   1.966   1_554  S
O315        C325   1.253       .  A
O315       Co318   1.939   1_556  S
O316        C323   1.271       .  A
O316       Co321   2.030       .  S
O317        C324   1.284       .  A
O317       Co320   2.082       .  S
Co318       O322   2.074       .  S
Co319       O322   2.033   1_556  S
Co320       O322   2.020   1_556  S
Co321       O322   2.108       .  S
C323        C778   1.511       .  S
C324        C703   1.565       .  S
C325       C1174   1.472       .  S
C326       C1187   1.480       .  S
C327        C328   1.412       .  A
C327        C332   1.413       .  A
C327       C1134   1.490       .  S
C328        C329   1.408       .  A
C328       C1147   1.480       .  S
C329        C330   1.403       .  A
C329       C1664   1.484       .  S
C330        C331   1.418       .  A
C330       C1194   1.510       .  S
C331        C332   1.409       .  A
C331       C1154   1.511       .  S
C332       C1164   1.491       .  S
O333        C341   1.271       .  A
O333       Co353   2.012       .  S
O334        C342   1.293       .  A
O334       Co354   2.119       .  S
O335        C343   1.243       .  A
O335       Co355   1.958       .  S
O336        C344   1.259       .  A
O336       Co356   1.927       .  S
O337        C343   1.252       .  A
O337       Co354   1.953       .  S
O338        C344   1.280       .  A
O338       Co353   1.972       .  S
O339        C342   1.276       .  A
O339       Co356   2.048       .  S
O340        C341   1.289       .  A
O340       Co355   2.075       .  S
C341        C620   1.538       .  S
C342        C499   1.583       .  S
C343       C1124   1.457       .  S
C344       C1117   1.448       .  S
O345        C358   1.266       .  A
O345       Co353   2.011       .  S
O346        C359   1.304       .  A
O346       Co354   2.061       .  S
O347        C360   1.273       .  A
O347       Co355   1.957       .  S
O348        C361   1.276       .  A
O348       Co356   1.964       .  S
O349        C361   1.254       .  A
O349       Co354   1.934       .  S
O350        C360   1.263       .  A
O350       Co353   1.965       .  S
O351        C358   1.301       .  A
O351       Co356   2.138       .  S
O352        C359   1.313       .  A
O352       Co355   2.098       .  S
Co353       O357   2.017       .  S
Co354       O357   2.086       .  S
Co355       O357   2.064       .  S
Co356       O357   2.064       .  S
C358        C720   1.577       .  S
C359        C435   1.580       .  S
C360       C1337   1.464       .  S
C361       C1167   1.448       .  S
O362        C370   1.296       .  A
O362       Co382   2.088   1_565  S
O363        C371   1.281       .  A
O363       Co383   2.066   1_545  S
O364        C372   1.275       .  A
O364       Co384   1.973       .  S
O365        C373   1.288       .  A
O365       Co385   1.995       .  S
O366        C372   1.262       .  A
O366       Co383   1.942       .  S
O367        C373   1.255       .  A
O367       Co382   1.920       .  S
O368        C371   1.270       .  A
O368       Co385   2.038       .  S
O369        C370   1.301       .  A
O369       Co384   2.055       .  S
C371        C515   1.550       .  S
C372       C1467   1.458       .  S
C373       C1237   1.447       .  S
O374        C387   1.279       .  A
O374       Co382   2.050       .  S
O375        C388   1.279       .  A
O375       Co383   1.951       .  S
O376        C389   1.244       .  A
O376       Co384   1.939       .  S
O377        C390   1.281       .  A
O377       Co385   1.992       .  S
O378        C390   1.272       .  A
O378       Co383   1.939   1_545  S
O379        C389   1.263   1_545  A
O379       Co382   1.967       .  S
O380        C387   1.272       .  A
O380       Co385   2.012       .  S
O381        C388   1.306       .  A
O381       Co384   2.119       .  S
Co382       O386   2.068       .  S
Co383       O386   1.915   1_565  S
Co384       O386   2.030   1_565  S
Co385       O386   2.021       .  S
C387        C486   1.524       .  S
C388        C422   1.527       .  S
C389       C1097   1.462   1_565  S
C390       C1107   1.473       .  S
C391        C392   1.407       .  A
C391        C396   1.404       .  A
C391       C1127   1.479       .  S
C392        C393   1.405   1_545  A
C392       C1067   1.484       .  S
C393        C394   1.401       .  A
C393       C1104   1.485   1_565  S
C394        C395   1.399       .  A
C394       C1084   1.472       .  S
C395        C396   1.400   1_565  A
C395       C1057   1.480       .  S
C396       C1074   1.480       .  S
O397        C405   1.256       .  A
O397       Co417   1.989       .  S
O398        C406   1.294       .  A
O398       Co418   2.118       .  S
O399        C407   1.267       .  A
O399       Co419   1.987       .  S
O400        C408   1.276       .  A
O400       Co420   1.986       .  S
O401        C407   1.244       .  A
O401       Co418   1.938       .  S
O402        C408   1.255       .  A
O402       Co417   1.942       .  S
O403        C406   1.276       .  A
O403       Co420   2.049       .  S
O404        C405   1.297       .  A
O404       Co419   2.158       .  S
C406        C749   1.587       .  S
C407       C1034   1.453       .  S
C408       C1087   1.452       .  S
O409        C422   1.270       .  A
O409       Co417   2.073       .  S
O410        C423   1.301       .  A
O410       Co418   2.057       .  S
O411        C424   1.275       .  A
O411       Co419   1.957       .  S
O412        C425   1.263       .  A
O412       Co420   1.958       .  S
O413        C425   1.265       .  A
O413       Co418   1.968       .  S
O414        C424   1.289       .  A
O414       Co417   2.011       .  S
O415        C422   1.261       .  A
O415       Co420   2.010       .  S
O416        C423   1.318       .  A
O416       Co419   2.128       .  S
Co417       O421   2.087       .  S
Co418       O421   2.047       .  S
Co419       O421   2.101       .  S
Co420       O421   2.068       .  S
C423        C533   1.599       .  S
C424       C1457   1.459       .  S
C425       C1044   1.471       .  S
O426        C434   1.264       .  A
O426       Co446   2.022       .  S
O427        C435   1.299       .  A
O427       Co447   2.091       .  S
O428        C436   1.300       .  A
O428       Co448   1.978       .  S
O429        C437   1.245   1_545  A
O429       Co449   1.939       .  S
O430        C436   1.255   1_545  A
O430       Co447   1.966       .  S
O431        C437   1.252       .  A
O431       Co446   1.963       .  S
O432        C435   1.309       .  A
O432       Co449   2.075       .  S
O433        C434   1.272       .  A
O433       Co448   2.068       .  S
C436       C1024   1.456       .  S
C437       C1077   1.461       .  S
O438        C451   1.284       .  A
O438       Co446   1.968       .  S
O439        C452   1.296       .  A
O439       Co447   2.083       .  S
O440        C453   1.263       .  A
O440       Co448   1.955       .  S
O441        C454   1.245       .  A
O441       Co449   1.918       .  S
O442        C454   1.279       .  A
O442       Co447   1.986       .  S
O443        C453   1.282       .  A
O443       Co446   1.982       .  S
O444        C451   1.327       .  A
O444       Co449   2.191   1_565  S
O445        C452   1.283       .  A
O445       Co448   2.064   1_545  S
Co446       O450   1.952       .  S
Co447       O450   2.089   1_545  S
Co448       O450   2.189       .  S
Co449       O450   2.078   1_545  S
C451        C732   1.574       .  S
C452        C691   1.579       .  S
C453       C1014   1.456       .  S
C454       C1314   1.452       .  S
C455        C456   1.403   1_545  A
C455        C460   1.406       .  A
C455       C1094   1.478       .  S
C456        C457   1.399       .  A
C456       C1547   1.489       .  S
C457        C458   1.399       .  A
C457       C1387   1.479       .  S
C458        C459   1.402   1_565  A
C458       C1027   1.454   1_554  S
C459        C460   1.407       .  A
C459        C997   1.507       .  S
C460       C1004   1.491       .  S
O461        C469   1.284       .  A
O461       Co481   1.967       .  S
O462        C470   1.291       .  A
O462       Co482   2.091       .  S
O463        C471   1.267       .  A
O463       Co483   1.949       .  S
O464        C472   1.288       .  A
O464       Co484   1.990       .  S
O465        C471   1.254       .  A
O465       Co482   1.952       .  S
O466        C472   1.267       .  A
O466       Co481   1.947       .  S
O467        C470   1.277       .  A
O467       Co484   2.044       .  S
O468        C469   1.315       .  A
O468       Co483   2.146       .  S
C470        C674   1.569       .  S
C471        C974   1.464   1_554  S
C472       C1007   1.461   1_554  S
O473        C486   1.283       .  A
O473       Co481   2.080       .  S
O474        C487   1.285       .  A
O474       Co482   1.993       .  S
O475        C488   1.251       .  A
O475       Co483   1.954       .  S
O476        C489   1.277       .  A
O476       Co484   2.006       .  S
O477        C489   1.258       .  A
O477       Co482   1.945       .  S
O478        C488   1.261       .  A
O478       Co481   1.973       .  S
O479        C486   1.272       .  A
O479       Co484   2.007       .  S
O480        C487   1.306       .  A
O480       Co483   2.125       .  S
Co481       O485   1.981       .  S
Co482       O485   1.951       .  S
Co483       O485   2.097       .  S
Co484       O485   1.987       .  S
C487        C534   1.557       .  S
C488       C1227   1.454       .  S
C489        C987   1.462       .  S
O490        C498   1.276       .  A
O490       Co510   2.047       .  S
O491        C499   1.324       .  A
O491       Co511   2.144       .  S
O492        C500   1.257       .  A
O492       Co512   1.952       .  S
O493        C501   1.268       .  A
O493       Co513   1.940       .  S
O494        C500   1.257       .  A
O494       Co511   1.923       .  S
O495        C501   1.289       .  A
O495       Co510   2.005       .  S
O496        C499   1.298       .  A
O496       Co513   2.016       .  S
O497        C498   1.289       .  A
O497       Co512   2.077       .  S
C500       C1137   1.436       .  S
C501       C1217   1.444       .  S
O502        C515   1.266       .  A
O502       Co510   2.017       .  S
O503        C516   1.317       .  A
O503       Co511   2.150       .  S
O504        C517   1.269       .  A
O504       Co512   1.934       .  S
O505        C518   1.261       .  A
O505       Co513   1.985       .  S
O506        C518   1.240       .  A
O506       Co511   1.940       .  S
O507        C517   1.277       .  A
O507       Co510   1.985       .  S
O508        C515   1.293       .  A
O508       Co513   2.103       .  S
O509        C516   1.286       .  A
O509       Co512   1.960       .  S
Co510       O514   1.986       .  S
Co511       O514   2.075       .  S
Co512       O514   1.932       .  S
Co513       O514   2.004       .  S
C516        C575   1.543       .  S
C517       C1597   1.467   1_545  S
C518       C1064   1.452   1_545  S
C519        C520   1.413       .  A
C519        C524   1.421       .  A
C519       C1637   1.487       .  S
C520        C521   1.410       .  A
C520        C944   1.505       .  S
C521        C522   1.387       .  A
C521       C1047   1.495       .  S
C522        C523   1.386       .  A
C522        C967   1.463       .  S
C523        C524   1.407       .  A
C523        C954   1.452       .  S
C524       C1507   1.505       .  S
O525        C533   1.307       .  A
O525       Co545   2.174       .  S
O526        C534   1.311       .  A
O526       Co546   2.068       .  S
O527        C535   1.268       .  A
O527       Co547   2.034       .  S
O528        C536   1.265       .  A
O528       Co548   2.087       .  S
O529        C535   1.242       .  A
O529       Co546   1.919       .  S
O530        C536   1.218       .  A
O530       Co545   1.892       .  S
O531        C534   1.308       .  A
O531       Co548   2.056       .  S
O532        C533   1.293       .  A
O532       Co547   2.020       .  S
C535        C914   1.474       .  S
C536        C924   1.489       .  S
O537        C550   1.287       .  A
O537       Co545   2.113       .  S
O538        C551   1.298       .  A
O538       Co546   2.086       .  S
O539        C552   1.283       .  A
O539       Co547   2.031       .  S
O540        C553   1.257       .  A
O540       Co548   1.992       .  S
O541        C553   1.229       .  A
O541       Co546   1.934       .  S
O542        C552   1.236       .  A
O542       Co545   1.896       .  S
O543        C550   1.272       .  A
O543       Co548   2.028       .  S
O544        C551   1.296       .  A
O544       Co547   2.072       .  S
Co545       O549   2.061       .  S
Co546       O549   2.026       .  S
Co547       O549   2.025       .  S
Co548       O549   2.144       .  S
C550        C604   1.557       .  S
C551        C655   1.560       .  S
C552        C964   1.436       .  S
C553        C934   1.445       .  S
C554        C555   1.412       .  A
C554        C559   1.417       .  A
C554        C984   1.498       .  S
C555        C556   1.400       .  A
C555        C894   1.501       .  S
C556        C557   1.403       .  A
C556       C1644   1.497       .  S
C557        C558   1.405       .  A
C557       C1264   1.484       .  S
C558        C559   1.421       .  A
C558        C904   1.503       .  S
C559        C937   1.486       .  S
C560        C561   1.418       .  A
C560        C565   1.404       .  A
C560        C884   1.481       .  S
C561        C562   1.415       .  A
C561       C1304   1.501       .  S
C562        C563   1.407       .  A
C562       C1574   1.493       .  S
C563        C564   1.403       .  A
C563        C874   1.475       .  S
C564        C565   1.400       .  A
C564       C1017   1.487       .  S
C565       C1374   1.481       .  S
O566        C574   1.271       .  A
O566       Co586   2.044   1_565  S
O567        C575   1.288       .  A
O567       Co587   2.045   1_545  S
O568        C576   1.246       .  A
O568       Co588   1.929       .  S
O569        C577   1.269       .  A
O569       Co589   1.973       .  S
O570        C576   1.251       .  A
O570       Co587   1.984       .  S
O571        C577   1.258       .  A
O571       Co586   1.954       .  S
O572        C575   1.292       .  A
O572       Co589   2.073       .  S
O573        C574   1.288       .  A
O573       Co588   2.095       .  S
C576       C1397   1.455       .  S
C577       C1144   1.447       .  S
O578        C591   1.321       .  A
O578       Co586   2.188       .  S
O579        C592   1.315       .  A
O579       Co587   2.089       .  S
O580        C593   1.242       .  A
O580       Co588   1.915       .  S
O581        C594   1.263       .  A
O581       Co589   1.981       .  S
O582        C594   1.258   1_565  A
O582       Co587   1.931       .  S
O583        C593   1.274       .  A
O583       Co586   2.004   1_565  S
O584        C591   1.285       .  A
O584       Co589   1.955       .  S
O585        C592   1.301       .  A
O585       Co588   2.031       .  S
Co586       O590   2.115   1_545  S
Co587       O590   2.064       .  S
Co588       O590   2.086       .  S
Co589       O590   1.971   1_545  S
C593       C1704   1.461   1_455  S
C594       C1607   1.460   1_545  S
O595        C603   1.287       .  A
O595       Co615   1.952       .  S
O596        C604   1.288       .  A
O596       Co616   2.092       .  S
O597        C605   1.258       .  A
O597       Co617   1.954       .  S
O598        C606   1.289       .  A
O598       Co618   2.016       .  S
O599        C605   1.257       .  A
O599       Co616   1.965       .  S
O600        C606   1.257       .  A
O600       Co615   1.915       .  S
O601        C604   1.274       .  A
O601       Co618   2.041       .  S
O602        C603   1.319       .  A
O602       Co617   2.141       .  S
C605        C867   1.465       .  S
C606        C854   1.431       .  S
O607        C620   1.293       .  A
O607       Co615   2.093       .  S
O608        C621   1.288       .  A
O608       Co616   1.992       .  S
O609        C622   1.251       .  A
O609       Co617   1.966       .  S
O610        C623   1.286       .  A
O610       Co618   2.043       .  S
O611        C623   1.258       .  A
O611       Co616   1.934       .  S
O612        C622   1.255       .  A
O612       Co615   1.948       .  S
O613        C620   1.278       .  A
O613       Co618   2.029       .  S
O614        C621   1.315       .  A
O614       Co617   2.132       .  S
Co615       O619   1.959       .  S
Co616       O619   1.949       .  S
Co617       O619   2.092       .  S
Co618       O619   1.984       .  S
C622       C1344   1.452       .  S
C623        C907   1.469       .  S
C624        C625   1.390   1_455  A
C624        C629   1.402   1_455  A
C624       C1434   1.477       .  S
C625        C626   1.399       .  A
C625       C1567   1.477       .  S
C626        C627   1.405       .  A
C626       C1287   1.474       .  S
C627        C628   1.408       .  A
C627        C864   1.472       .  S
C628        C629   1.400       .  A
C628       C1257   1.497       .  S
C629        C844   1.465       .  S
O630        C638   1.318       .  A
O630       Co650   2.164       .  S
O631        C639   1.270       .  A
O631       Co651   2.028       .  S
O632        C640   1.261       .  A
O632       Co652   1.936       .  S
O633        C641   1.259       .  A
O633       Co653   1.971       .  S
O634        C640   1.287       .  A
O634       Co651   2.008       .  S
O635        C641   1.251       .  A
O635       Co650   1.943       .  S
O636        C639   1.285       .  A
O636       Co653   2.093   1_556  S
O637        C638   1.281       .  A
O637       Co652   1.931   1_554  S
C640        C887   1.451       .  S
C641        C957   1.442       .  S
O642        C655   1.309       .  A
O642       Co650   2.148       .  S
O643        C656   1.262       .  A
O643       Co651   1.985       .  S
O644        C657   1.260   1_556  A
O644       Co652   1.971       .  S
O645        C658   1.263       .  A
O645       Co653   1.959   1_556  S
O646        C658   1.269       .  A
O646       Co651   1.969       .  S
O647        C657   1.250       .  A
O647       Co650   1.959       .  S
O648        C655   1.282       .  A
O648       Co653   1.997       .  S
O649        C656   1.291       .  A
O649       Co652   2.114       .  S
Co650       O654   2.104   1_554  S
Co651       O654   2.014       .  S
Co652       O654   1.973       .  S
Co653       O654   1.951   1_554  S
C657        C824   1.455   1_554  S
C658        C834   1.421       .  S
C659        C660   1.404   1_554  A
C659        C664   1.402       .  A
C659        C917   1.504       .  S
C660        C661   1.388       .  A
C660        C837   1.433       .  S
C661        C662   1.406       .  A
C661       C1367   1.487       .  S
C662        C663   1.420       .  A
C662        C814   1.506       .  S
C663        C664   1.419   1_556  A
C663       C1184   1.504   1_556  S
C664        C977   1.490   1_554  S
O665        C673   1.269       .  A
O665       Co685   2.066   1_556  S
O666        C674   1.274       .  A
O666       Co686   2.079   1_554  S
O667        C675   1.260       .  A
O667       Co687   1.940       .  S
O668        C676   1.272       .  A
O668       Co688   1.948       .  S
O669        C675   1.287       .  A
O669       Co686   2.046       .  S
O670        C676   1.285       .  A
O670       Co685   2.031       .  S
O671        C674   1.274       .  A
O671       Co688   2.057       .  S
O672        C673   1.273       .  A
O672       Co687   2.040       .  S
C675       C1324   1.480       .  S
C676        C897   1.478       .  S
O677        C690   1.274       .  A
O677       Co685   2.053       .  S
O678        C691   1.273       .  A
O678       Co686   2.062       .  S
O679        C692   1.281       .  A
O679       Co687   2.016       .  S
O680        C693   1.284       .  A
O680       Co688   2.038       .  S
O681        C693   1.267       .  A
O681       Co686   1.938   1_554  S
O682        C692   1.272       .  A
O682       Co685   1.952   1_556  S
O683        C690   1.269       .  A
O683       Co688   2.059       .  S
O684        C691   1.271       .  A
O684       Co687   2.097       .  S
Co685       O689   2.106   1_554  S
Co686       O689   2.089       .  S
Co687       O689   2.089       .  S
Co688       O689   2.104   1_554  S
C692       C1697   1.477       .  S
C693        C994   1.478       .  S
O694        C702   1.268       .  A
O694       Co714   2.028       .  S
O695        C703   1.277       .  A
O695       Co715   2.062       .  S
O696        C704   1.280       .  A
O696       Co716   2.032       .  S
O697        C705   1.280       .  A
O697       Co717   2.038       .  S
O698        C704   1.266       .  A
O698       Co715   1.944       .  S
O699        C705   1.258       .  A
O699       Co714   1.940       .  S
O700        C703   1.273       .  A
O700       Co717   2.065       .  S
O701        C702   1.267       .  A
O701       Co716   2.070       .  S
C704       C1157   1.476       .  S
C705       C1407   1.476       .  S
O706        C719   1.275       .  A
O706       Co714   2.090       .  S
O707        C720   1.273       .  A
O707       Co715   2.084       .  S
O708        C721   1.269       .  A
O708       Co716   1.955       .  S
O709        C722   1.267       .  A
O709       Co717   1.948       .  S
O710        C722   1.279       .  A
O710       Co715   2.014       .  S
O711        C721   1.284       .  A
O711       Co714   2.031       .  S
O712        C719   1.273       .  A
O712       Co717   2.048       .  S
O713        C720   1.281       .  A
O713       Co716   2.063       .  S
Co714       O718   2.093       .  S
Co715       O718   2.099       .  S
Co716       O718   2.112       .  S
Co717       O718   2.089       .  S
C721        C804   1.479       .  S
C722        C817   1.480       .  S
O723        C731   1.292       .  A
O723       Co743   1.993       .  S
O724        C732   1.300       .  A
O724       Co744   2.138       .  S
O725        C733   1.258       .  A
O725       Co745   1.971       .  S
O726        C734   1.280       .  A
O726       Co746   2.011       .  S
O727        C733   1.261       .  A
O727       Co744   1.955       .  S
O728        C734   1.263       .  A
O728       Co743   1.937       .  S
O729        C732   1.266       .  A
O729       Co746   2.024       .  S
O730        C731   1.315       .  A
O730       Co745   2.143       .  S
C733       C1054   1.458       .  S
C734       C1587   1.473       .  S
O735        C748   1.296       .  A
O735       Co743   2.113       .  S
O736        C749   1.287       .  A
O736       Co744   1.981       .  S
O737        C750   1.265       .  A
O737       Co745   1.932       .  S
O738        C751   1.282       .  A
O738       Co746   2.011       .  S
O739        C751   1.257       .  A
O739       Co744   1.941       .  S
O740        C750   1.250       .  A
O740       Co743   1.952       .  S
O741        C748   1.274       .  A
O741       Co746   2.048       .  S
O742        C749   1.322       .  A
O742       Co745   2.185       .  S
Co743       O747   1.967       .  S
Co744       O747   1.993       .  S
Co745       O747   2.107       .  S
Co746       O747   1.989       .  S
C750        C947   1.466       .  S
C751        C877   1.457       .  S
O752        C760   1.289       .  A
O752       Co772   2.066       .  S
O753        C761   1.280       .  A
O753       Co773   2.065       .  S
O754        C762   1.261       .  A
O754       Co774   1.960       .  S
O755        C763   1.275       .  A
O755       Co775   1.989       .  S
O756        C762   1.246       .  A
O756       Co773   1.936       .  S
O757        C763   1.249       .  A
O757       Co772   1.930       .  S
O758        C761   1.290       .  A
O758       Co775   2.084       .  S
O759        C760   1.271       .  A
O759       Co774   2.010       .  S
C762        C797   1.437       .  S
C763        C847   1.456   1_455  S
O764        C777   1.288       .  A
O764       Co772   1.985       .  S
O765        C778   1.316       .  A
O765       Co773   2.161       .  S
O766        C779   1.268       .  A
O766       Co774   2.027       .  S
O767        C780   1.253       .  A
O767       Co775   1.960       .  S
O768        C780   1.267       .  A
O768       Co773   1.970       .  S
O769        C779   1.240       .  A
O769       Co772   1.941       .  S
O770        C777   1.308       .  A
O770       Co775   2.109       .  S
O771        C778   1.280       .  A
O771       Co774   1.910       .  S
Co772       O776   1.979       .  S
Co773       O776   2.126       .  S
Co774       O776   1.961       .  S
Co775       O776   2.045       .  S
C779       C1477   1.472       .  S
C780       C1204   1.457       .  S
C781        C782   1.398       .  A
C781        C786   1.387       .  A
C781       C1037   1.482       .  S
C782        C783   1.413       .  A
C782       C1424   1.491       .  S
C783        C784   1.421       .  A
C783        C807   1.510       .  S
C784        C785   1.399       .  A
C784       C1114   1.497       .  S
C785        C786   1.411       .  A
C785        C857   1.486       .  S
C786        C927   1.466       .  S
C787        C788   1.398   1_655  A
C787        C792   1.410       .  A
C787       C1297   1.481   1_655  S
C788        C789   1.416       .  A
C788       C1677   1.507       .  S
C789        C790   1.413   1_556  A
C789       C1177   1.490       .  S
C790        C791   1.408   1_554  A
C790        C794   1.485       .  S
C791        C792   1.405   1_455  A
C791       C1497   1.489       .  S
C792        C827   1.495       .  S
C793        C794   1.413       .  A
C793        C798   1.399   1_455  A
C793        H800   1.082   1_455  S
C794        C795   1.408       .  A
C795        C796   1.385       .  A
C795        F802   1.351       .  S
C796        C797   1.392       .  A
C796        H801   1.086       .  S
C797        C798   1.406   1_455  A
C798        F799   1.357       .  S
C803        C804   1.396       .  A
C803        C808   1.398       .  A
C803        H810   1.082       .  S
C804        C805   1.404       .  A
C805        C806   1.403       .  A
C805        F812   1.356       .  S
C806        C807   1.415       .  A
C806        H811   1.073       .  S
C807        C808   1.416       .  A
C808        F809   1.344       .  S
C813        C814   1.415       .  A
C813        C818   1.404       .  A
C813        H820   1.079       .  S
C814        C815   1.428       .  A
C815        C816   1.400       .  A
C815        F822   1.356       .  S
C816        C817   1.396       .  A
C816        H821   1.084       .  S
C817        C818   1.392       .  A
C818        F819   1.352       .  S
C823        C824   1.391   1_554  A
C823        C828   1.394       .  A
C823        H830   1.084       .  S
C824        C825   1.404       .  A
C825        C826   1.402       .  A
C825        F832   1.355       .  S
C826        C827   1.394       .  A
C826        H831   1.073       .  S
C827        C828   1.417   1_556  A
C828        F829   1.340       .  S
C833        C834   1.390       .  A
C833        C838   1.390       .  A
C833        H840   1.083       .  S
C834        C835   1.399       .  A
C835        C836   1.350       .  A
C835        F842   1.341   1_556  S
C836        C837   1.368       .  A
C836        H841   1.082       .  S
C837        C838   1.418       .  A
C838        F839   1.352       .  S
C843        C844   1.412       .  A
C843        C848   1.388       .  A
C843        H850   1.075       .  S
C844        C845   1.407       .  A
C845        C846   1.393       .  A
C845        F852   1.355       .  S
C846        C847   1.401       .  A
C846        H851   1.083       .  S
C847        C848   1.393       .  A
C848        F849   1.357       .  S
C853        C854   1.396       .  A
C853        C858   1.387       .  A
C853        H860   1.084       .  S
C854        C855   1.382       .  A
C855        C856   1.379       .  A
C855        F862   1.358       .  S
C856        C857   1.410       .  A
C856        H861   1.061       .  S
C857        C858   1.415       .  A
C858        F859   1.358       .  S
C863        C864   1.404       .  A
C863        C868   1.395       .  A
C863        H870   1.083       .  S
C864        C865   1.417       .  A
C865        C866   1.388       .  A
C865        F872   1.346       .  S
C866        C867   1.389       .  A
C866        H871   1.084       .  S
C867        C868   1.408       .  A
C868        F869   1.357       .  S
C873        C874   1.405       .  A
C873        C878   1.400       .  A
C873        H880   1.079       .  S
C874        C875   1.420       .  A
C875        C876   1.392       .  A
C875        F882   1.342       .  S
C876        C877   1.388       .  A
C876        H881   1.084       .  S
C877        C878   1.404       .  A
C878        F879   1.356       .  S
C883        C884   1.407       .  A
C883        C888   1.404       .  A
C883        H890   1.081       .  S
C884        C885   1.420       .  A
C885        C886   1.389       .  A
C885        F892   1.338       .  S
C886        C887   1.384       .  A
C886        H891   1.084       .  S
C887        C888   1.400       .  A
C888        F889   1.354       .  S
C893        C894   1.416       .  A
C893        C898   1.403       .  A
C893        H900   1.072       .  S
C894        C895   1.423       .  A
C895        C896   1.398       .  A
C895        F902   1.352       .  S
C896        C897   1.393       .  A
C896        H901   1.080       .  S
C897        C898   1.402       .  A
C898        F899   1.357       .  S
C903        C904   1.407       .  A
C903        C908   1.394       .  A
C903        H910   1.070       .  S
C904        C905   1.417       .  A
C905        C906   1.396       .  A
C905        F912   1.357       .  S
C906        C907   1.407       .  A
C906        H911   1.084       .  S
C907        C908   1.400       .  A
C908        F909   1.358       .  S
C913        C914   1.405       .  A
C913        C918   1.390       .  A
C913        H920   1.083       .  S
C914        C915   1.403       .  A
C915        C916   1.394       .  A
C915        F922   1.358       .  S
C916        C917   1.409       .  A
C916        H921   1.068       .  S
C917        C918   1.403       .  A
C918        F919   1.352       .  S
C923        C924   1.401       .  A
C923        C928   1.411       .  A
C923        H930   1.083       .  S
C924        C925   1.426       .  A
C925        C926   1.359       .  A
C925        F932   1.337       .  S
C926        C927   1.363       .  A
C926        H931   1.083       .  S
C927        C928   1.421       .  A
C928        F929   1.352       .  S
C933        C934   1.397       .  A
C933        C938   1.392       .  A
C933        H940   1.084       .  S
C934        C935   1.394       .  A
C935        C936   1.386       .  A
C935        F942   1.359       .  S
C936        C937   1.412       .  A
C936        H941   1.078       .  S
C937        C938   1.415       .  A
C938        F939   1.356       .  S
C943        C944   1.418       .  A
C943        C948   1.401       .  A
C943        H950   1.079       .  S
C944        C945   1.421       .  A
C945        C946   1.399       .  A
C945        F952   1.354       .  S
C946        C947   1.395       .  A
C946        H951   1.084       .  S
C947        C948   1.402       .  A
C948        F949   1.358       .  S
C953        C954   1.377       .  A
C953        C958   1.366       .  A
C953        H960   1.081       .  S
C954        C955   1.413       .  A
C955        C956   1.396       .  A
C955        F962   1.353       .  S
C956        C957   1.395       .  A
C956        H961   1.083       .  S
C957        C958   1.410       .  A
C958        F959   1.353       .  S
C963        C964   1.401       .  A
C963        C968   1.385       .  A
C963        H970   1.084       .  S
C964        C965   1.388       .  A
C965        C966   1.385       .  A
C965        F972   1.356       .  S
C966        C967   1.405       .  A
C966        H971   1.067       .  S
C967        C968   1.390       .  A
C968        F969   1.344       .  S
C973        C974   1.390       .  A
C973        C978   1.394       .  A
C973        H980   1.084       .  S
C974        C975   1.398       .  A
C975        C976   1.395       .  A
C975        F982   1.356       .  S
C976        C977   1.410       .  A
C976        H981   1.079       .  S
C977        C978   1.429       .  A
C978        F979   1.357   1_556  S
C983        C984   1.403       .  A
C983        C988   1.386       .  A
C983        H990   1.079       .  S
C984        C985   1.408       .  A
C985        C986   1.389       .  A
C985        F992   1.354       .  S
C986        C987   1.404       .  A
C986        H991   1.085       .  S
C987        C988   1.398       .  A
C988        F989   1.351       .  S
C993        C994   1.399   1_565  A
C993        C998   1.401       .  A
C993       H1000   1.084       .  S
C994        C995   1.393       .  A
C995        C996   1.400       .  A
C995       F1002   1.349       .  S
C996        C997   1.416       .  A
C996       H1001   1.075       .  S
C997        C998   1.422   1_545  A
C998        F999   1.351       .  S
C1003      C1004   1.420       .  A
C1003      C1008   1.395   1_554  A
C1003      H1010   1.066       .  S
C1004      C1005   1.412   1_554  A
C1005      C1006   1.405       .  A
C1005      F1012   1.353       .  S
C1006      C1007   1.406       .  A
C1006      H1011   1.083       .  S
C1007      C1008   1.392       .  A
C1008      F1009   1.357       .  S
C1013      C1014   1.397       .  A
C1013      C1018   1.395       .  A
C1013      H1020   1.083       .  S
C1014      C1015   1.393       .  A
C1015      C1016   1.391       .  A
C1015      F1022   1.358       .  S
C1016      C1017   1.414       .  A
C1016      H1021   1.064       .  S
C1017      C1018   1.405       .  A
C1018      F1019   1.335       .  S
C1023      C1024   1.390   1_545  A
C1023      C1028   1.374       .  A
C1023      H1030   1.084       .  S
C1024      C1025   1.405       .  A
C1025      C1026   1.371       .  A
C1025      F1032   1.321       .  S
C1026      C1027   1.378       .  A
C1026      H1031   1.081       .  S
C1027      C1028   1.411   1_565  A
C1028      F1029   1.338       .  S
C1033      C1034   1.400       .  A
C1033      C1038   1.389       .  A
C1033      H1040   1.077       .  S
C1034      C1035   1.390       .  A
C1035      C1036   1.387       .  A
C1035      F1042   1.357       .  S
C1036      C1037   1.414       .  A
C1036      H1041   1.063       .  S
C1037      C1038   1.391       .  A
C1038      F1039   1.346       .  S
C1043      C1044   1.403       .  A
C1043      C1048   1.392       .  A
C1043      H1050   1.084       .  S
C1044      C1045   1.397       .  A
C1045      C1046   1.393       .  A
C1045      F1052   1.358       .  S
C1046      C1047   1.423       .  A
C1046      H1051   1.081       .  S
C1047      C1048   1.405       .  A
C1048      F1049   1.351       .  S
C1053      C1054   1.385   1_545  A
C1053      C1058   1.388       .  A
C1053      H1060   1.084       .  S
C1054      C1055   1.408       .  A
C1055      C1056   1.399       .  A
C1055      F1062   1.355       .  S
C1056      C1057   1.401       .  A
C1056      H1061   1.082       .  S
C1057      C1058   1.418   1_565  A
C1058      F1059   1.340       .  S
C1063      C1064   1.384       .  A
C1063      C1068   1.387       .  A
C1063      H1070   1.085       .  S
C1064      C1065   1.404       .  A
C1065      C1066   1.401       .  A
C1065      F1072   1.356       .  S
C1066      C1067   1.404   1_565  A
C1066      H1071   1.079       .  S
C1067      C1068   1.421   1_545  A
C1068      F1069   1.341       .  S
C1073      C1074   1.411   1_565  A
C1073      C1078   1.389       .  A
C1073      H1080   1.071       .  S
C1074      C1075   1.408       .  A
C1075      C1076   1.401       .  A
C1075      F1082   1.353       .  S
C1076      C1077   1.410   1_545  A
C1076      H1081   1.083       .  S
C1077      C1078   1.394       .  A
C1078      F1079   1.358       .  S
C1083      C1084   1.412       .  A
C1083      C1088   1.387       .  A
C1083      H1090   1.055       .  S
C1084      C1085   1.390       .  A
C1085      C1086   1.402       .  A
C1085      F1092   1.350       .  S
C1086      C1087   1.404       .  A
C1086      H1091   1.081       .  S
C1087      C1088   1.386       .  A
C1088      F1089   1.358       .  S
C1093      C1094   1.409       .  A
C1093      C1098   1.395       .  A
C1093      H1100   1.082       .  S
C1094      C1095   1.428   1_545  A
C1095      C1096   1.389       .  A
C1095      F1102   1.347       .  S
C1096      C1097   1.386   1_565  A
C1096      H1101   1.084       .  S
C1097      C1098   1.398       .  A
C1098      F1099   1.355       .  S
C1103      C1104   1.417       .  A
C1103      C1108   1.386       .  A
C1103      H1110   1.059       .  S
C1104      C1105   1.415   1_545  A
C1105      C1106   1.404       .  A
C1105      F1112   1.356       .  S
C1106      C1107   1.409   1_565  A
C1106      H1111   1.083       .  S
C1107      C1108   1.385       .  A
C1108      F1109   1.358       .  S
C1113      C1114   1.427       .  A
C1113      C1118   1.390       .  A
C1113      H1120   1.081       .  S
C1114      C1115   1.404       .  A
C1115      C1116   1.393       .  A
C1115      F1122   1.352       .  S
C1116      C1117   1.398       .  A
C1116      H1121   1.085       .  S
C1117      C1118   1.391       .  A
C1118      F1119   1.357       .  S
C1123      C1124   1.406       .  A
C1123      C1128   1.400       .  A
C1123      H1130   1.083       .  S
C1124      C1125   1.389       .  A
C1125      C1126   1.389       .  A
C1125      F1132   1.357       .  S
C1126      C1127   1.419       .  A
C1126      H1131   1.070       .  S
C1127      C1128   1.409       .  A
C1128      F1129   1.353       .  S
C1133      C1134   1.405       .  A
C1133      C1138   1.385       .  A
C1133      H1140   1.071       .  S
C1134      C1135   1.411       .  A
C1135      C1136   1.389       .  A
C1135      F1142   1.356       .  S
C1136      C1137   1.401       .  A
C1136      H1141   1.085       .  S
C1137      C1138   1.398       .  A
C1138      F1139   1.359       .  S
C1143      C1144   1.385       .  A
C1143      C1148   1.387       .  A
C1143      H1150   1.083       .  S
C1144      C1145   1.404       .  A
C1145      C1146   1.394       .  A
C1145      F1152   1.350       .  S
C1146      C1147   1.396       .  A
C1146      H1151   1.083       .  S
C1147      C1148   1.414       .  A
C1148      F1149   1.344       .  S
C1153      C1154   1.412       .  A
C1153      C1158   1.401       .  A
C1153      H1160   1.068       .  S
C1154      C1155   1.415       .  A
C1155      C1156   1.401       .  A
C1155      F1162   1.343       .  S
C1156      C1157   1.397       .  A
C1156      H1161   1.084       .  S
C1157      C1158   1.401       .  A
C1158      F1159   1.356       .  S
C1163      C1164   1.417       .  A
C1163      C1168   1.395       .  A
C1163      H1170   1.082       .  S
C1164      C1165   1.416       .  A
C1165      C1166   1.397       .  A
C1165      F1172   1.352       .  S
C1166      C1167   1.397       .  A
C1166      H1171   1.084       .  S
C1167      C1168   1.393       .  A
C1168      F1169   1.357       .  S
C1173      C1174   1.396       .  A
C1173      C1178   1.397       .  A
C1173      H1180   1.084       .  S
C1174      C1175   1.397       .  A
C1175      C1176   1.396       .  A
C1175      F1182   1.356   1_556  S
C1176      C1177   1.423       .  A
C1176      H1181   1.082   1_556  S
C1177      C1178   1.417       .  A
C1178      F1179   1.346       .  S
C1183      C1184   1.421       .  A
C1183      C1188   1.397       .  A
C1183      H1190   1.075   1_554  S
C1184      C1185   1.421       .  A
C1185      C1186   1.402       .  A
C1185      F1192   1.350       .  S
C1186      C1187   1.399       .  A
C1186      H1191   1.083       .  S
C1187      C1188   1.393       .  A
C1188      F1189   1.357       .  S
C1193      C1194   1.420       .  A
C1193      C1198   1.394       .  A
C1193      H1200   1.076       .  S
C1194      C1195   1.408       .  A
C1195      C1196   1.399       .  A
C1195      F1202   1.347       .  S
C1196      C1197   1.397       .  A
C1196      H1201   1.079       .  S
C1197      C1198   1.397       .  A
C1198      F1199   1.358       .  S
C1203      C1204   1.386       .  A
C1203      C1208   1.388       .  A
C1203      H1210   1.083       .  S
C1204      C1205   1.406       .  A
C1205      C1206   1.401       .  A
C1205      F1212   1.353       .  S
C1206      C1207   1.399       .  A
C1206      H1211   1.081       .  S
C1207      C1208   1.416       .  A
C1208      F1209   1.341       .  S
C1213      C1214   1.414       .  A
C1213      C1218   1.387       .  A
C1213      H1220   1.076       .  S
C1214      C1215   1.406       .  A
C1215      C1216   1.396       .  A
C1215      F1222   1.350       .  S
C1216      C1217   1.401       .  A
C1216      H1221   1.084       .  S
C1217      C1218   1.392       .  A
C1218      F1219   1.358       .  S
C1223      C1224   1.412       .  A
C1223      C1228   1.397       .  A
C1223      H1230   1.082       .  S
C1224      C1225   1.417       .  A
C1225      C1226   1.392       .  A
C1225      F1232   1.349       .  S
C1226      C1227   1.392       .  A
C1226      H1231   1.085       .  S
C1227      C1228   1.402       .  A
C1228      F1229   1.357       .  S
C1233      C1234   1.416       .  A
C1233      C1238   1.386       .  A
C1233      H1240   1.065       .  S
C1234      C1235   1.409       .  A
C1235      C1236   1.395       .  A
C1235      F1242   1.349       .  S
C1236      C1237   1.399       .  A
C1236      H1241   1.084       .  S
C1237      C1238   1.385       .  A
C1238      F1239   1.357       .  S
C1243      C1244   1.407       .  A
C1243      C1248   1.408       .  A
C1243      H1250   1.083       .  S
C1244      C1245   1.399       .  A
C1245      C1246   1.399       .  A
C1245      F1252   1.357       .  S
C1246      C1247   1.418       .  A
C1246      H1251   1.070       .  S
C1247      C1248   1.410       .  A
C1248      F1249   1.354       .  S
C1253      C1254   1.391       .  A
C1253      C1258   1.392       .  A
C1253      H1260   1.086       .  S
C1254      C1255   1.413   1_455  A
C1255      C1256   1.408       .  A
C1255      F1262   1.356       .  S
C1256      C1257   1.414       .  A
C1256      H1261   1.084       .  S
C1257      C1258   1.416   1_655  A
C1258      F1259   1.353       .  S
C1263      C1264   1.417       .  A
C1263      C1268   1.392       .  A
C1263      H1270   1.073       .  S
C1264      C1265   1.398       .  A
C1265      C1266   1.393       .  A
C1265      F1272   1.350       .  S
C1266      C1267   1.406       .  A
C1266      H1271   1.084       .  S
C1267      C1268   1.392       .  A
C1268      F1269   1.357       .  S
C1273      C1274   1.379       .  A
C1273      C1278   1.380       .  A
C1273      H1280   1.085       .  S
C1274      C1275   1.402       .  A
C1275      C1276   1.396       .  A
C1275      F1282   1.350       .  S
C1276      C1277   1.398       .  A
C1276      H1281   1.079       .  S
C1277      C1278   1.419       .  A
C1278      F1279   1.336       .  S
C1283      C1284   1.403       .  A
C1283      C1288   1.398       .  A
C1283      H1290   1.085       .  S
C1284      C1285   1.383       .  A
C1285      C1286   1.378       .  A
C1285      F1292   1.359   1_655  S
C1286      C1287   1.407       .  A
C1286      H1291   1.087       .  S
C1287      C1288   1.403       .  A
C1288      F1289   1.352       .  S
C1293      C1294   1.398       .  A
C1293      C1298   1.397       .  A
C1293      H1300   1.083       .  S
C1294      C1295   1.396       .  A
C1295      C1296   1.394       .  A
C1295      F1302   1.358       .  S
C1296      C1297   1.414       .  A
C1296      H1301   1.071       .  S
C1297      C1298   1.413       .  A
C1298      F1299   1.350       .  S
C1303      C1304   1.418       .  A
C1303      C1308   1.389       .  A
C1303      H1310   1.062       .  S
C1304      C1305   1.414       .  A
C1305      C1306   1.406       .  A
C1305      F1312   1.350       .  S
C1306      C1307   1.410       .  A
C1306      H1311   1.083       .  S
C1307      C1308   1.386       .  A
C1308      F1309   1.358       .  S
C1313      C1314   1.392       .  A
C1313      C1318   1.393       .  A
C1313      H1320   1.084       .  S
C1314      C1315   1.398       .  A
C1315      C1316   1.396       .  A
C1315      F1322   1.358       .  S
C1316      C1317   1.411       .  A
C1316      H1321   1.071       .  S
C1317      C1318   1.413       .  A
C1318      F1319   1.349       .  S
C1323      C1324   1.388       .  A
C1323      C1328   1.395       .  A
C1323      H1330   1.084       .  S
C1324      C1325   1.410       .  A
C1325      C1326   1.408       .  A
C1325      F1332   1.356       .  S
C1326      C1327   1.411       .  A
C1326      H1331   1.067       .  S
C1327      C1328   1.425       .  A
C1328      F1329   1.349       .  S
C1333      C1334   1.416       .  A
C1333      C1338   1.396       .  A
C1333      H1340   1.071       .  S
C1334      C1335   1.403       .  A
C1335      C1336   1.398       .  A
C1335      F1342   1.350       .  S
C1336      C1337   1.404       .  A
C1336      H1341   1.083       .  S
C1337      C1338   1.397       .  A
C1338      F1339   1.358       .  S
C1343      C1344   1.406       .  A
C1343      C1348   1.401       .  A
C1343      H1350   1.083       .  S
C1344      C1345   1.390       .  A
C1345      C1346   1.394       .  A
C1345      F1352   1.357       .  S
C1346      C1347   1.407       .  A
C1346      H1351   1.043       .  S
C1347      C1348   1.408       .  A
C1348      F1349   1.352       .  S
C1353      C1354   1.404       .  A
C1353      C1358   1.398       .  A
C1353      H1360   1.084       .  S
C1354      C1355   1.393       .  A
C1355      C1356   1.383       .  A
C1355      F1362   1.361       .  S
C1356      C1357   1.412       .  A
C1356      H1361   1.080       .  S
C1357      C1358   1.412       .  A
C1358      F1359   1.356       .  S
C1363      C1364   1.407       .  A
C1363      C1368   1.396       .  A
C1363      H1370   1.081       .  S
C1364      C1365   1.391   1_556  A
C1365      C1366   1.390       .  A
C1365      F1372   1.357       .  S
C1366      C1367   1.412   1_554  A
C1366      H1371   1.065       .  S
C1367      C1368   1.390       .  A
C1368      F1369   1.347       .  S
C1373      C1374   1.410       .  A
C1373      C1378   1.388       .  A
C1373      H1380   1.063       .  S
C1374      C1375   1.407       .  A
C1375      C1376   1.398       .  A
C1375      F1382   1.353       .  S
C1376      C1377   1.404       .  A
C1376      H1381   1.083       .  S
C1377      C1378   1.391       .  A
C1378      F1379   1.359       .  S
C1383      C1384   1.389       .  A
C1383      C1388   1.385       .  A
C1383      H1390   1.084       .  S
C1384      C1385   1.401       .  A
C1385      C1386   1.391       .  A
C1385      F1392   1.356       .  S
C1386      C1387   1.403       .  A
C1386      H1391   1.079       .  S
C1387      C1388   1.413       .  A
C1388      F1389   1.349       .  S
C1393      C1394   1.406       .  A
C1393      C1398   1.405       .  A
C1393      H1400   1.078       .  S
C1394      C1395   1.420       .  A
C1395      C1396   1.395       .  A
C1395      F1402   1.340       .  S
C1396      C1397   1.389       .  A
C1396      H1401   1.084       .  S
C1397      C1398   1.408       .  A
C1398      F1399   1.357       .  S
C1403      C1404   1.416       .  A
C1403      C1408   1.395       .  A
C1403      H1410   1.072       .  S
C1404      C1405   1.415       .  A
C1405      C1406   1.400       .  A
C1405      F1412   1.358       .  S
C1406      C1407   1.404       .  A
C1406      H1411   1.084       .  S
C1407      C1408   1.392       .  A
C1408      F1409   1.355       .  S
C1413      C1414   1.414       .  A
C1413      C1418   1.393       .  A
C1413      H1420   1.066       .  S
C1414      C1415   1.416       .  A
C1415      C1416   1.404       .  A
C1415      F1422   1.354       .  S
C1416      C1417   1.405       .  A
C1416      H1421   1.084       .  S
C1417      C1418   1.389       .  A
C1418      F1419   1.358       .  S
C1423      C1424   1.413       .  A
C1423      C1428   1.400       .  A
C1423      H1430   1.079       .  S
C1424      C1425   1.426       .  A
C1425      C1426   1.397       .  A
C1425      F1432   1.356       .  S
C1426      C1427   1.391       .  A
C1426      H1431   1.084       .  S
C1427      C1428   1.401       .  A
C1428      F1429   1.357       .  S
C1433      C1434   1.411       .  A
C1433      C1438   1.388       .  A
C1433      H1440   1.042       .  S
C1434      C1435   1.395       .  A
C1435      C1436   1.401       .  A
C1435      F1442   1.350       .  S
C1436      C1437   1.398       .  A
C1436      H1441   1.078       .  S
C1437      C1438   1.387       .  A
C1438      F1439   1.358       .  S
C1443      C1444   1.403       .  A
C1443      C1448   1.401       .  A
C1443      H1450   1.083       .  S
C1444      C1445   1.393       .  A
C1445      C1446   1.389       .  A
C1445      F1452   1.359       .  S
C1446      C1447   1.406       .  A
C1446      H1451   1.065       .  S
C1447      C1448   1.416       .  A
C1448      F1449   1.352       .  S
C1453      C1454   1.414       .  A
C1453      C1458   1.393       .  A
C1453      H1460   1.071       .  S
C1454      C1455   1.393       .  A
C1455      C1456   1.401       .  A
C1455      F1462   1.351       .  S
C1456      C1457   1.402       .  A
C1456      H1461   1.077       .  S
C1457      C1458   1.394       .  A
C1458      F1459   1.357       .  S
C1463      C1464   1.412       .  A
C1463      C1468   1.390       .  A
C1463      H1470   1.082       .  S
C1464      C1465   1.407       .  A
C1465      C1466   1.390       .  A
C1465      F1472   1.351       .  S
C1466      C1467   1.398       .  A
C1466      H1471   1.084       .  S
C1467      C1468   1.399       .  A
C1468      F1469   1.358       .  S
C1473      C1474   1.412       .  A
C1473      C1478   1.407       .  A
C1473      H1480   1.082       .  S
C1474      C1475   1.417       .  A
C1475      C1476   1.391       .  A
C1475      F1482   1.345       .  S
C1476      C1477   1.392       .  A
C1476      H1481   1.084       .  S
C1477      C1478   1.413       .  A
C1478      F1479   1.358       .  S
C1483      C1484   1.414       .  A
C1483      C1488   1.396       .  A
C1483      H1490   1.083       .  S
C1484      C1485   1.419       .  A
C1485      C1486   1.392       .  A
C1485      F1492   1.345       .  S
C1486      C1487   1.393       .  A
C1486      H1491   1.083       .  S
C1487      C1488   1.402       .  A
C1488      F1489   1.357       .  S
C1493      C1494   1.387       .  A
C1493      C1498   1.389       .  A
C1493      H1500   1.083       .  S
C1494      C1495   1.403   1_455  A
C1495      C1496   1.403       .  A
C1495      F1502   1.353       .  S
C1496      C1497   1.400   1_655  A
C1496      H1501   1.082       .  S
C1497      C1498   1.416       .  A
C1498      F1499   1.344       .  S
C1503      C1504   1.381       .  A
C1503      C1508   1.386       .  A
C1503      H1510   1.086       .  S
C1504      C1505   1.405       .  A
C1505      C1506   1.401       .  A
C1505      F1512   1.355       .  S
C1506      C1507   1.408       .  A
C1506      H1511   1.082       .  S
C1507      C1508   1.425       .  A
C1508      F1509   1.341       .  S
C1513      C1514   1.388       .  A
C1513      C1518   1.388       .  A
C1513      H1520   1.084       .  S
C1514      C1515   1.405       .  A
C1515      C1516   1.394       .  A
C1515      F1522   1.354       .  S
C1516      C1517   1.408       .  A
C1516      H1521   1.082       .  S
C1517      C1518   1.425       .  A
C1518      F1519   1.351       .  S
C1523      C1524   1.420       .  A
C1523      C1528   1.394       .  A
C1523      H1530   1.066       .  S
C1524      C1525   1.416       .  A
C1525      C1526   1.400       .  A
C1525      F1532   1.348       .  S
C1526      C1527   1.400       .  A
C1526      H1531   1.083       .  S
C1527      C1528   1.389       .  A
C1528      F1529   1.358       .  S
C1533      C1534   1.377       .  A
C1533      C1538   1.360       .  A
C1533      H1540   1.078       .  S
C1534      C1535   1.398       .  A
C1535      C1536   1.399       .  A
C1535      F1542   1.357       .  S
C1536      C1537   1.404       .  A
C1536      H1541   1.076       .  S
C1537      C1538   1.413       .  A
C1538      F1539   1.353       .  S
C1543      C1544   1.402   1_554  A
C1543      C1548   1.397   1_565  A
C1543      H1550   1.083   1_565  S
C1544      C1545   1.396       .  A
C1545      C1546   1.390       .  A
C1545      F1552   1.359       .  S
C1546      C1547   1.413   1_556  A
C1546      H1551   1.078       .  S
C1547      C1548   1.406   1_565  A
C1548      F1549   1.356       .  S
C1553      C1554   1.391       .  A
C1553      C1558   1.393       .  A
C1553      H1560   1.083       .  S
C1554      C1555   1.407       .  A
C1555      C1556   1.402       .  A
C1555      F1562   1.355       .  S
C1556      C1557   1.402       .  A
C1556      H1561   1.081       .  S
C1557      C1558   1.413       .  A
C1558      F1559   1.343       .  S
C1563      C1564   1.404   1_455  A
C1563      C1568   1.395       .  A
C1563      H1570   1.083       .  S
C1564      C1565   1.395       .  A
C1565      C1566   1.391       .  A
C1565      F1572   1.358       .  S
C1566      C1567   1.414       .  A
C1566      H1571   1.078       .  S
C1567      C1568   1.409   1_655  A
C1568      F1569   1.357       .  S
C1573      C1574   1.414       .  A
C1573      C1578   1.386       .  A
C1573      H1580   1.066       .  S
C1574      C1575   1.414       .  A
C1575      C1576   1.406       .  A
C1575      F1582   1.355       .  S
C1576      C1577   1.413       .  A
C1576      H1581   1.083       .  S
C1577      C1578   1.388       .  A
C1578      F1579   1.359       .  S
C1583      C1584   1.419       .  A
C1583      C1588   1.392       .  A
C1583      H1590   1.073       .  S
C1584      C1585   1.411   1_565  A
C1585      C1586   1.401       .  A
C1585      F1592   1.356       .  S
C1586      C1587   1.407   1_545  A
C1586      H1591   1.084       .  S
C1587      C1588   1.391       .  A
C1588      F1589   1.358       .  S
C1593      C1594   1.416       .  A
C1593      C1598   1.387       .  A
C1593      H1600   1.050       .  S
C1594      C1595   1.413       .  A
C1595      C1596   1.401       .  A
C1595      F1602   1.357       .  S
C1596      C1597   1.410       .  A
C1596      H1601   1.083       .  S
C1597      C1598   1.386       .  A
C1598      F1599   1.358       .  S
C1603      C1604   1.396       .  A
C1603      C1608   1.394       .  A
C1603      H1610   1.079       .  S
C1604      C1605   1.419   1_465  A
C1605      C1606   1.388       .  A
C1605      F1612   1.341       .  S
C1606      C1607   1.385   1_645  A
C1606      H1611   1.083       .  S
C1607      C1608   1.410       .  A
C1608      F1609   1.353       .  S
C1613      C1614   1.410       .  A
C1613      C1618   1.386       .  A
C1613      H1620   1.063       .  S
C1614      C1615   1.415   1_655  A
C1615      C1616   1.401       .  A
C1615      F1622   1.355       .  S
C1616      C1617   1.405   1_455  A
C1616      H1621   1.083       .  S
C1617      C1618   1.389       .  A
C1618      F1619   1.359       .  S
C1623      C1624   1.415   1_455  A
C1623      C1628   1.390       .  A
C1623      H1630   1.056       .  S
C1624      C1625   1.407       .  A
C1625      C1626   1.398       .  A
C1625      F1632   1.348       .  S
C1626      C1627   1.401   1_655  A
C1626      H1631   1.083       .  S
C1627      C1628   1.387       .  A
C1628      F1629   1.357       .  S
C1633      C1634   1.396       .  A
C1633      C1638   1.396       .  A
C1633      H1640   1.084       .  S
C1634      C1635   1.400       .  A
C1635      C1636   1.398       .  A
C1635      F1642   1.358       .  S
C1636      C1637   1.415       .  A
C1636      H1641   1.082       .  S
C1637      C1638   1.415       .  A
C1638      F1639   1.356       .  S
C1643      C1644   1.404       .  A
C1643      C1648   1.401       .  A
C1643      H1650   1.072       .  S
C1644      C1645   1.415       .  A
C1645      C1646   1.397       .  A
C1645      F1652   1.343       .  S
C1646      C1647   1.396       .  A
C1646      H1651   1.083       .  S
C1647      C1648   1.401       .  A
C1648      F1649   1.356       .  S
C1653      C1654   1.401   1_445  A
C1653      C1658   1.399       .  A
C1653      H1660   1.083       .  S
C1654      C1655   1.393       .  A
C1655      C1656   1.393       .  A
C1655      F1662   1.358       .  S
C1656      C1657   1.413       .  A
C1656      H1661   1.070       .  S
C1657      C1658   1.420   1_665  A
C1658      F1659   1.356       .  S
C1663      C1664   1.405       .  A
C1663      C1668   1.399       .  A
C1663      H1670   1.081       .  S
C1664      C1665   1.415       .  A
C1665      C1666   1.394       .  A
C1665      F1672   1.341       .  S
C1666      C1667   1.392       .  A
C1666      H1671   1.083       .  S
C1667      C1668   1.407       .  A
C1668      F1669   1.356       .  S
C1673      C1674   1.393       .  A
C1673      C1678   1.391       .  A
C1673      H1680   1.085       .  S
C1674      C1675   1.404   1_656  A
C1675      C1676   1.400   1_554  A
C1675      F1682   1.357       .  S
C1676      C1677   1.408       .  A
C1676      H1681   1.075       .  S
C1677      C1678   1.420   1_455  A
C1678      F1679   1.350       .  S
C1683      C1684   1.397       .  A
C1683      C1688   1.401       .  A
C1683      H1690   1.084       .  S
C1684      C1685   1.397       .  A
C1685      C1686   1.400       .  A
C1685      F1692   1.357       .  S
C1686      C1687   1.409       .  A
C1686      H1691   1.070       .  S
C1687      C1688   1.426       .  A
C1688      F1689   1.356       .  S
C1693      C1694   1.416   1_565  A
C1693      C1698   1.398       .  A
C1693      H1700   1.036       .  S
C1694      C1695   1.419       .  A
C1695      C1696   1.401       .  A
C1695      F1702   1.348       .  S
C1696      C1697   1.398       .  A
C1696      H1701   1.082       .  S
C1697      C1698   1.395   1_545  A
C1698      F1699   1.358       .  S
C1703      C1704   1.400   1_545  A
C1703      C1708   1.393       .  A
C1703      H1710   1.080       .  S
C1704      C1705   1.389       .  A
C1705      C1706   1.392       .  A
C1705      F1712   1.357       .  S
C1706      C1707   1.416   1_565  A
C1706      H1711   1.064       .  S
C1707      C1708   1.407       .  A
C1708      F1709   1.348       .  S
C1713      C1714   1.407       .  A
C1713      C1718   1.399   1_655  A
C1713      H1720   1.083   1_655  S
C1714      C1715   1.389       .  A
C1715      C1716   1.383       .  A
C1715      F1722   1.359       .  S
C1716      C1717   1.409       .  A
C1716      H1721   1.047   1_556  S
C1717      C1718   1.416   1_655  A
C1718      F1719   1.356       .  S
C1723      C1724   1.395       .  A
C1723      C1728   1.396   1_565  A
C1723      H1730   1.083       .  S
C1724      C1725   1.404   1_554  A
C1725      C1726   1.395       .  A
C1725      F1732   1.354       .  S
C1726      C1727   1.399       .  A
C1726      H1731   1.075       .  S
C1727      C1728   1.415   1_566  A
C1728      F1729   1.344       .  S
C1733      C1734   1.403       .  A
C1733      C1738   1.392       .  A
C1733      H1740   1.079       .  S
C1734      C1735   1.419   1_545  A
C1735      C1736   1.387   1_565  A
C1735      F1742   1.354       .  S
C1736      C1737   1.399       .  A
C1736      H1741   1.084   1_645  S
C1737      C1738   1.406       .  A
C1738      F1739   1.354       .  S
C1743      C1744   1.411   1_655  A
C1743      C1748   1.401   1_656  A
C1743      H1750   1.075       .  S
C1744      C1745   1.424       .  A
C1745      C1746   1.394       .  A
C1745      F1752   1.349       .  S
C1746      C1747   1.391       .  A
C1746      H1751   1.084       .  S
C1747      C1748   1.406   1_556  A
C1748      F1749   1.358   1_455  S
