geometry optimzed in LAMMPS
_audit_creation_date              2020-11-30 
_audit_creation_method            'lammps2cif' 
_symmetry_space_group_name_H-M    'P1' 
_symmetry_Int_Tables_number       1 
_symmetry_cell_setting            triclinic 
loop_ 
_symmetry_equiv_pos_as_xyz 
  x,y,z 
_cell_length_a                    41.60531219 
_cell_length_b                    44.55927531655451 
_cell_length_c                    35.17978291280602 
_cell_angle_alpha                 90.00129721868923 
_cell_angle_beta                  89.9950012788307 
_cell_angle_gamma                 90.0800287832542 
loop_ 
_atom_site_label 
_atom_site_type_symbol 
_atom_site_fract_x 
_atom_site_fract_y 
_atom_site_fract_z 
_atom_site_charge 
C1          C  0.71834378  0.23124289  0.46092273     0.30300
C2          C  0.71816314  0.23159703  0.03986628     0.30300
C3          C  0.68554553  0.23555724  0.48077810    -0.05900
C4          C  0.73030168  0.20233647  0.48074482    -0.06700
C5          C  0.73886654  0.25545641  0.48039765    -0.06600
C6          C  0.68506211  0.23269161  0.02000868    -0.05900
C7          C  0.73328659  0.20369322  0.02153014    -0.06700
C8          C  0.73579009  0.25745103  0.01920516    -0.06600
C9          C  0.65336274  0.23502506  0.03109156    -0.32000
N10         N  0.63560634  0.24091366  0.50126065     0.14500
C11         C  0.65389417  0.23803955  0.46971079    -0.32000
H12         H  0.64438167  0.23672718  0.44116364     0.16500
C13         C  0.74507758  0.17685691  0.03488369    -0.31000
N14         N  0.75185001  0.15891032  0.00472046     0.13300
C15         C  0.74198119  0.17475887  0.46974196    -0.30900
C16         C  0.74829887  0.28505643  0.02910323    -0.31200
N17         N  0.75722524  0.29999264  0.99703810     0.13800
H18         H  0.74997960  0.29406749  0.05752879     0.16400
C19         C  0.75428626  0.28113240  0.46860889    -0.31200
H20         H  0.75677546  0.28852555  0.43944636     0.16400
H21         H  0.74439135  0.16666673  0.44093676     0.16400
H22         H  0.64434907  0.23747665  0.05976809     0.16500
H23         H  0.74744201  0.17048224  0.06443747     0.16400
C24         C  0.71751322  0.23087050  0.21067501     0.30300
C25         C  0.71867384  0.23005101  0.28987958     0.30300
C26         C  0.68477043  0.22734617  0.23088148    -0.05900
C27         C  0.73737362  0.20585732  0.22934091    -0.06700
C28         C  0.73066056  0.25914614  0.23071784    -0.06600
C29         C  0.68532290  0.22668355  0.27087608    -0.05900
C30         C  0.73779409  0.20512377  0.26919728    -0.06700
C31         C  0.73151310  0.25848053  0.27045852    -0.06600
C32         C  0.65372747  0.22652377  0.28283371    -0.32000
N33         N  0.63453153  0.22741700  0.25174889     0.14500
C34         C  0.65295666  0.22846855  0.22009752    -0.32000
H35         H  0.64366397  0.23180409  0.19173133     0.16500
C36         C  0.75098289  0.17787363  0.27909672    -0.31000
N37         N  0.75964974  0.16276677  0.24709553     0.13300
C38         C  0.75119644  0.17968912  0.21655178    -0.30900
C39         C  0.74465283  0.28515174  0.28251555    -0.31200
N40         N  0.75150582  0.30222403  0.25150792     0.13800
H41         H  0.74962624  0.29120811  0.31170667     0.16400
C42         C  0.74241433  0.28672552  0.21992758    -0.31200
H43         H  0.74398037  0.29505688  0.19115900     0.16400
H44         H  0.75279641  0.17262102  0.18717221     0.16400
H45         H  0.64513305  0.22700925  0.31186986     0.16500
H46         H  0.75258272  0.16888303  0.30750424     0.16400
C47         C  0.85900253  0.48343450  0.45993093     0.30300
C48         C  0.85998258  0.48264154  0.03852691     0.30300
C49         C  0.89217587  0.48659173  0.47871900    -0.05900
C50         C  0.83856385  0.00442565  0.47873744    -0.06700
C51         C  0.84569607  0.45486321  0.47945691    -0.06600
C52         C  0.89311314  0.48423860  0.01844759    -0.05900
C53         C  0.84087679  0.00387413  0.02046318    -0.06700
C54         C  0.84477453  0.45534094  0.01794826    -0.06600
C55         C  0.92258593  0.97748604  0.02781698    -0.32000
N56         N  0.94059895  0.98056601  0.99589944     0.14500
C57         C  0.91956799  0.97944034  0.46561989    -0.32000
H58         H  0.92770126  0.98192495  0.43656973     0.16500
C59         C  0.82446004  0.02830250  0.03445782    -0.31000
N60         N  0.81259863  0.04421718  0.00465369     0.13300
C61         C  0.82193475  0.02983363  0.46822924    -0.30900
C62         C  0.83020423  0.42874480  0.02833784    -0.31200
N63         N  0.82015716  0.41417954  0.99650508     0.13800
H64         H  0.82747709  0.42022183  0.05692485     0.16400
C65         C  0.83130858  0.42841993  0.46821200    -0.31200
H66         H  0.82483284  0.42223591  0.43951694     0.16400
H67         H  0.81611001  0.03668090  0.43955571     0.16400
H68         H  0.93221653  0.97702333  0.05636353     0.16500
H69         H  0.82088208  0.03372693  0.06413173     0.16400
C70         C  0.85909538  0.48261003  0.20970654     0.30300
C71         C  0.85891238  0.48413108  0.28897300     0.30300
C72         C  0.89218491  0.48200649  0.22959346    -0.05900
C73         C  0.83964830  0.00341138  0.22744458    -0.06700
C74         C  0.84206909  0.45632922  0.23020264    -0.06600
C75         C  0.89195939  0.48330148  0.26947036    -0.05900
C76         C  0.83908578  0.00403860  0.26724900    -0.06700
C77         C  0.84164258  0.45724440  0.27006273    -0.06600
C78         C  0.92048065  0.98284444  0.28043265    -0.32000
N79         N  0.93964735  0.98332999  0.24931563     0.14500
C80         C  0.92148219  0.97948820  0.21774260    -0.32000
H81         H  0.93087400  0.97943508  0.18910847     0.16500
C82         C  0.82332783  0.02994206  0.27744977    -0.31000
N83         N  0.81519033  0.04540241  0.24551509     0.13300
C84         C  0.82494729  0.02921412  0.21482463    -0.30900
C85         C  0.82548456  0.43193941  0.28217239    -0.31200
N86         N  0.81694476  0.41530524  0.25133182     0.13800
H87         H  0.82082865  0.42585317  0.31138967     0.16400
C88         C  0.82724369  0.43001325  0.21967675    -0.31200
H89         H  0.82449479  0.42200334  0.19094880     0.16400
H90         H  0.82184249  0.03571725  0.18541461     0.16400
H91         H  0.92853905  0.98622393  0.30938939     0.16500
H92         H  0.81866585  0.03742061  0.30610014     0.16400
O93         O  0.54095592  0.27226949  0.04595745    -0.71500
O94         O  0.54316499  0.25697518  0.44137314    -0.71700
O95         O  0.49588526  0.26594868  0.99238869    -0.71600
O96         O  0.58773530  0.26734972  0.49419702    -0.71600
O97         O  0.58342954  0.21274669  0.00369475    -0.71600
O98         O  0.49378384  0.22559361  0.51198666    -0.71600
O99         O  0.53703124  0.21042974  0.45895502    -0.71500
O100        O  0.54081611  0.22436968  0.05838292    -0.71700
V101        V  0.54121828  0.26251519  0.99378817     1.35200
V102        V  0.53793358  0.21667367  0.00601929     1.35200
C103        C  0.54130942  0.25115794  0.06970900     0.77700
C104        C  0.53974772  0.22967598  0.43300775     0.77800
C105        C  0.47870522  0.24361844  0.00110999     0.77600
C106        C  0.60049139  0.23598175  0.99920927     0.77600
O107        O  0.54260169  0.25295159  0.31053183    -0.71500
O108        O  0.54408585  0.27133116  0.20617662    -0.71700
O109        O  0.49820694  0.26743977  0.25924379    -0.71600
O110        O  0.58853890  0.25681015  0.25810266    -0.71600
O111        O  0.58203076  0.20933492  0.24562696    -0.71600
O112        O  0.49146918  0.22035192  0.24472737    -0.71600
O113        O  0.53830456  0.22384027  0.19308405    -0.71500
O114        O  0.53514154  0.20565204  0.29746854    -0.71700
V115        V  0.54322494  0.26121366  0.25822667     1.35200
V116        V  0.53686451  0.21569737  0.24546849     1.35200
C117        C  0.53859199  0.22631433  0.32147843     0.77700
C118        C  0.54150447  0.25057202  0.18212667     0.77800
C119        C  0.47959578  0.24576600  0.25212464     0.77600
C120        C  0.60055316  0.23125200  0.25205689     0.77600
O121        O  0.04316623  0.46132684  0.45545334    -0.71500
O122        O  0.03919878  0.48297992  0.05723991    -0.71700
O123        O  0.99480916  0.46980487  0.50472061    -0.71600
O124        O  0.08691648  0.47812063  0.00656987    -0.71600
O125        O  0.07218958  0.02759289  0.49205952    -0.71600
O126        O  0.98459861  0.01267802  0.98798533    -0.71600
O127        O  0.02564703  0.03276282  0.04103069    -0.71500
O128        O  0.03062180  0.01004417  0.43900376    -0.71700
V129        V  0.04010566  0.47517037  0.50608353     1.35200
V130        V  0.02953108  0.02052463  0.98987790     1.35200
C131        C  0.03694530  0.98375901  0.42830290     0.77700
C132        C  0.02855117  0.01326064  0.06665813     0.77800
C133        C  0.97432110  0.98664352  0.99561070     0.77600
C134        C  0.09404303  0.00987254  0.00028556     0.77600
O135        O  0.07357889  0.03147415  0.25347927    -0.71500
O136        O  0.98387651  0.01502099  0.25801104    -0.71700
O137        O  0.03287540  0.01289576  0.30688413    -0.71600
O138        O  0.02435584  0.03402126  0.20363481    -0.71600
O139        O  0.03794307  0.48185219  0.18896919    -0.71600
O140        O  0.04249875  0.45859169  0.29193334    -0.71600
O141        O  0.99485306  0.46503298  0.24117604    -0.71500
O142        O  0.08564521  0.47582175  0.23935572    -0.71700
V143        V  0.02883233  0.02251194  0.25511071     1.35200
V144        V  0.04012698  0.47122268  0.24068908     1.35200
C145        C  0.09322820  0.01052331  0.24665620     0.77700
C146        C  0.97327539  0.98935831  0.24909376     0.77800
C147        C  0.03758648  0.98599778  0.31628668     0.77600
C148        C  0.02860772  0.01442449  0.17835231     0.77600
C149        C  0.36339073  0.26251632  0.46268106     0.30300
C150        C  0.36339453  0.26585376  0.04164467     0.30300
C151        C  0.39653903  0.26096393  0.48216491    -0.05900
C152        C  0.34812385  0.28959175  0.48235780    -0.06700
C153        C  0.34599933  0.23609847  0.48261546    -0.06600
C154        C  0.39591745  0.25913783  0.02201121    -0.05900
C155        C  0.35245319  0.29471176  0.02134409    -0.06700
C156        C  0.34187948  0.24197272  0.02245622    -0.06600
C157        C  0.42650803  0.25097322  0.03323103    -0.32000
N158        N  0.44458594  0.24648056  0.00167483     0.14500
C159        C  0.42751429  0.25538359  0.47046465    -0.32000
H160        H  0.43606624  0.25290599  0.44161338     0.16500
C161        C  0.33694144  0.32067640  0.03185272    -0.31000
N162        N  0.32815939  0.33596838  0.99988407     0.13300
C163        C  0.33204489  0.31475633  0.47066047    -0.30900
C164        C  0.32605666  0.21637329  0.03410077    -0.31200
N165        N  0.31579366  0.20115164  0.00291686     0.13800
H166        H  0.32405609  0.20826114  0.06295651     0.16400
C167        C  0.33117473  0.20980911  0.47171792    -0.31200
H168        H  0.32748804  0.20214517  0.44289637     0.16400
H169        H  0.32794416  0.32131817  0.44145016     0.16400
H170        H  0.43531714  0.24880986  0.06201156     0.16500
H171        H  0.33084172  0.32692243  0.06066683     0.16400
C172        C  0.36385835  0.26569974  0.21246410     0.30300
C173        C  0.36355518  0.26459863  0.29171893     0.30300
C174        C  0.39657778  0.26054637  0.23212842    -0.05900
C175        C  0.35167808  0.29399749  0.23284308    -0.06700
C176        C  0.34359719  0.24076993  0.23146291    -0.06600
C177        C  0.39646726  0.26024850  0.27215455    -0.05900
C178        C  0.35147508  0.29332227  0.27260648    -0.06700
C179        C  0.34348943  0.24019789  0.27137114    -0.06600
C180        C  0.42737559  0.25387833  0.28360446    -0.32000
N181        N  0.44573420  0.25015768  0.25219630     0.14500
C182        C  0.42738543  0.25362545  0.22075552    -0.32000
H183        H  0.43606156  0.25099726  0.19198815     0.16500
C184        C  0.33819440  0.31975417  0.28489341    -0.31000
N185        N  0.33035840  0.33649620  0.25398787     0.13300
C186        C  0.33864398  0.32104005  0.22208907    -0.30900
C187        C  0.32896514  0.21370072  0.28201094    -0.31200
N188        N  0.31953429  0.19861372  0.25035327     0.13800
H189        H  0.32635750  0.20545697  0.31072477     0.16400
C190        C  0.32898495  0.21464395  0.21943653    -0.31200
H191        H  0.32698882  0.20697126  0.19036901     0.16400
H192        H  0.33421763  0.32834469  0.19323491     0.16400
H193        H  0.43599372  0.25148962  0.31246157     0.16500
H194        H  0.33400143  0.32609023  0.31417195     0.16400
C195        C  0.21664479  0.51296302  0.03918510     0.30300
C196        C  0.21655356  0.51104711  0.45965619     0.30300
C197        C  0.18348830  0.51253059  0.01948162    -0.05900
C198        C  0.22742842  0.04624790  0.02116567    -0.06700
C199        C  0.23321490  0.48693279  0.01836720    -0.06600
C200        C  0.18312983  0.51045555  0.47890138    -0.05900
C201        C  0.22639423  0.04416694  0.48154779    -0.06700
C202        C  0.23341122  0.48443066  0.47918292    -0.06600
C203        C  0.15151341  0.50966747  0.46716971    -0.32000
N204        N  0.13326061  0.50757564  0.99919032     0.14500
C205        C  0.15219936  0.50678065  0.03042854    -0.32000
H206        H  0.14368419  0.50171785  0.05878555     0.16500
C207        C  0.24173665  0.07038370  0.47133941    -0.31000
N208        N  0.24941483  0.08914241  0.00248000     0.13300
C209        C  0.24129496  0.07253145  0.03345025    -0.30900
C210        C  0.24817789  0.45835446  0.46754696    -0.31200
N211        N  0.25783176  0.44606126  0.99700087     0.13800
H212        H  0.25261122  0.45171755  0.43844312     0.16400
C213        C  0.24749920  0.46049429  0.02871546    -0.31200
H214        H  0.24950517  0.45194632  0.05739133     0.16400
H215        H  0.24530920  0.07893351  0.06272641     0.16400
H216        H  0.14266737  0.51063972  0.43829080     0.16500
H217        H  0.24476287  0.07904444  0.44286878     0.16400
C218        C  0.21535817  0.51291791  0.28879845     0.30300
C219        C  0.21590522  0.51108859  0.20974760     0.30300
C220        C  0.18217152  0.51129283  0.26901196    -0.05900
C221        C  0.22578152  0.04636519  0.27050225    -0.06700
C222        C  0.23306488  0.48644961  0.27028615    -0.06600
C223        C  0.18252822  0.50948034  0.22913528    -0.05900
C224        C  0.22663427  0.04586212  0.23069041    -0.06700
C225        C  0.23341911  0.48539495  0.23050183    -0.06600
C226        C  0.15123837  0.50424781  0.21774143    -0.32000
N227        N  0.13204239  0.50478500  0.24880953     0.14500
C228        C  0.15037497  0.50941631  0.28013888    -0.32000
H229        H  0.14110504  0.51058784  0.30881001     0.16500
C230        C  0.24159520  0.07175533  0.21886659    -0.31000
N231        N  0.24975350  0.08812076  0.25002398     0.13300
C232        C  0.23970694  0.07306878  0.28151502    -0.30900
C233        C  0.24938955  0.45950742  0.22058407    -0.31200
N234        N  0.25918872  0.44539868  0.25278969     0.13800
H235        H  0.25313348  0.45102777  0.19212968     0.16400
C236        C  0.24903653  0.46147955  0.28329292    -0.31200
H237        H  0.25332599  0.45565975  0.31272675     0.16400
H238        H  0.24196160  0.08132900  0.31027078     0.16400
H239        H  0.14285660  0.49994853  0.18912760     0.16500
H240        H  0.24677202  0.07785576  0.18971805     0.16400
C241        C  0.23620997  0.02916007  0.39589934    -0.13100
C242        C  0.21732946  0.51035729  0.41529061     0.09100
C243        C  0.19524311  0.49298805  0.39415249    -0.13100
C244        C  0.19463697  0.49382446  0.35401778    -0.13100
C245        C  0.21610369  0.51204420  0.33309860     0.09100
C246        C  0.23617388  0.02966119  0.35577069    -0.13100
H247        H  0.25723178  0.03757778  0.41036072     0.13100
H248        H  0.17848749  0.47834714  0.40857761     0.13100
H249        H  0.17757497  0.47960613  0.33941309     0.13100
H250        H  0.25708192  0.03862137  0.34149037     0.13100
C251        C  0.24378981  0.50233870  0.10436441    -0.13100
C252        C  0.21702047  0.51267992  0.08343593     0.09100
C253        C  0.18841091  0.03484462  0.10569427    -0.13100
C254        C  0.18865887  0.03494473  0.14577503    -0.13100
C255        C  0.21655241  0.51147399  0.16552473     0.09100
C256        C  0.24355957  0.50172931  0.14454158    -0.13100
H257        H  0.26532519  0.49515262  0.08977526     0.13100
H258        H  0.16965704  0.04716653  0.09131667     0.13100
H259        H  0.17015609  0.04751148  0.16027986     0.13100
H260        H  0.26497352  0.49425833  0.15906400     0.13100
C261        C  0.30522345  0.15011817  0.28028517    -0.13100
C262        C  0.30260865  0.17033477  0.24975637     0.09100
C263        C  0.28236160  0.16288617  0.21915200    -0.13100
C264        C  0.26499177  0.13600027  0.21921851    -0.13100
C265        C  0.26739721  0.11598045  0.24994416     0.09100
C266        C  0.28778687  0.12333060  0.28040279    -0.13100
H267        H  0.32102820  0.15476641  0.30397267     0.13100
H268        H  0.27938342  0.17814526  0.19548688     0.13100
H269        H  0.24923626  0.13112378  0.19553337     0.13100
H270        H  0.29072082  0.10809577  0.30410765     0.13100
C271        C  0.31944426  0.38650580  0.22700000    -0.13100
C272        C  0.31351897  0.36462425  0.25481877     0.09100
C273        C  0.29011781  0.37015174  0.28277932    -0.13100
C274        C  0.27251490  0.39681691  0.28243907    -0.13100
C275        C  0.27794155  0.41837279  0.25407275     0.09100
C276        C  0.30181215  0.41313323  0.22663216    -0.13100
H277        H  0.33770521  0.38295841  0.20554690     0.13100
H278        H  0.28479736  0.35347668  0.30424567     0.13100
H279        H  0.25408388  0.40027977  0.30371400     0.13100
H280        H  0.30685039  0.42972639  0.20495654     0.13100
C281        C  0.27900272  0.16487426  0.03372782    -0.13100
C282        C  0.29891748  0.17292273  0.00305495     0.09100
C283        C  0.30197887  0.15302528  0.97232120    -0.13100
C284        C  0.28558835  0.12577965  0.97217059    -0.13100
C285        C  0.26573827  0.11763470  0.00276754     0.09100
C286        C  0.26259912  0.13746167  0.03361115    -0.13100
H287        H  0.27576404  0.17992573  0.05755590     0.13100
H288        H  0.31759632  0.15812061  0.94861734     0.13100
H289        H  0.28909826  0.11075796  0.94838201     0.13100
H290        H  0.24716804  0.13197449  0.05738706     0.13100
C291        C  0.27580362  0.39926283  0.96529151    -0.13100
C292        C  0.27578044  0.41838593  0.99702097     0.09100
C293        C  0.29360863  0.41002244  0.02930484    -0.13100
C294        C  0.31059218  0.38312657  0.03015316    -0.13100
C295        C  0.31042557  0.36377835  0.99871420     0.09100
C296        C  0.29286385  0.37222765  0.96613714    -0.13100
H297        H  0.26214923  0.40484732  0.94008939     0.13100
H298        H  0.29476761  0.42099498  0.55462013     0.13100
H299        H  0.32254378  0.37314825  0.55624143     0.13100
H300        H  0.29171477  0.35780876  0.94147537     0.13100
C301        C  0.33589429  0.25448986  0.39717911    -0.13100
C302        C  0.36285601  0.26398918  0.41834261     0.09100
C303        C  0.38759018  0.27828670  0.39750344    -0.13100
C304        C  0.38764905  0.27871829  0.35735315    -0.13100
C305        C  0.36278605  0.26519946  0.33608958     0.09100
C306        C  0.33578935  0.25523192  0.35701665    -0.13100
H307        H  0.31445372  0.24687047  0.41163085     0.13100
H308        H  0.40686080  0.28973482  0.41213172     0.13100
H309        H  0.40716006  0.29007351  0.34298155     0.13100
H310        H  0.31408948  0.24846321  0.34249654     0.13100
C311        C  0.38907970  0.27918062  0.10680458    -0.13100
C312        C  0.36296250  0.26736685  0.08593971     0.09100
C313        C  0.33534747  0.25963001  0.10713801    -0.13100
C314        C  0.33551879  0.25955394  0.14726293    -0.13100
C315        C  0.36328732  0.26731514  0.16815440     0.09100
C316        C  0.38919857  0.27922633  0.14698845    -0.13100
H317        H  0.40946255  0.28877797  0.09211910     0.13100
H318        H  0.31319338  0.25391564  0.09279567     0.13100
H319        H  0.31357720  0.25361489  0.16190412     0.13100
H320        H  0.40958926  0.28908304  0.16137711     0.13100
C321        C  0.03976460  0.97858772  0.35518461    -0.13000
C322        C  0.03955302  0.97779579  0.38903540    -0.14600
C323        C  0.02598543  0.02153369  0.13934103    -0.13000
C324        C  0.02591552  0.02103723  0.10545340    -0.14600
C325        C  0.53817497  0.22014809  0.36070559    -0.13000
C326        C  0.53869606  0.22119601  0.39448116    -0.14600
C327        C  0.54211314  0.25681909  0.14287210    -0.13000
C328        C  0.54204247  0.25703570  0.10904035    -0.14600
C329        C  0.86576123  0.45748422  0.39426222    -0.13100
C330        C  0.85995607  0.48381465  0.41559346     0.09100
C331        C  0.85965410  0.00519496  0.39326353    -0.13100
C332        C  0.86004778  0.00520138  0.35311127    -0.13100
C333        C  0.86029441  0.48436124  0.33333732     0.09100
C334        C  0.86589254  0.45776657  0.35411103    -0.13100
H335        H  0.87090833  0.43655981  0.40846609     0.13100
H336        H  0.86221500  0.02641189  0.40777550     0.13100
H337        H  0.86303693  0.02641284  0.33869261     0.13100
H338        H  0.87073178  0.43697349  0.33931529     0.13100
C339        C  0.87929261  0.99441630  0.10335484    -0.13100
C340        C  0.85929088  0.48310642  0.08291967     0.09100
C341        C  0.83306643  0.47140711  0.10373545    -0.13100
C342        C  0.83272231  0.47152911  0.14392739    -0.19900
C343        C  0.85863695  0.48325292  0.16527435     0.09100
C344        C  0.87869171  0.99489353  0.14350775    -0.13100
H345        H  0.89654515  0.00851693  0.08883495     0.13100
H346        H  0.81222470  0.46275009  0.08904983     0.13100
H347        H  0.81149186  0.46319042  0.15809456     0.13100
H348        H  0.89535499  0.00949816  0.15808565     0.13100
C349        C  0.76837144  0.11300404  0.27648491    -0.13100
C350        C  0.77311094  0.13291680  0.24599482     0.09100
C351        C  0.79134331  0.12317402  0.21465983    -0.13100
C352        C  0.80477675  0.09436729  0.21412859    -0.13100
C353        C  0.80028219  0.07465084  0.24494686     0.09100
C354        C  0.78172314  0.08435091  0.27594892    -0.13100
H355        H  0.75384125  0.11921882  0.30069038     0.13100
H356        H  0.79580180  0.13801044  0.19087953     0.13100
H357        H  0.81929561  0.08786995  0.19000299     0.13100
H358        H  0.77706627  0.06966717  0.29980047     0.13100
C359        C  0.80136806  0.36774564  0.21981385    -0.13100
C360        C  0.80041299  0.38671631  0.25176508     0.09100
C361        C  0.78292439  0.37721200  0.28388324    -0.13100
C362        C  0.76677861  0.34963006  0.28385080    -0.13100
C363        C  0.76760349  0.33092702  0.25166380     0.09100
C364        C  0.78515980  0.34037548  0.21973866    -0.13100
H365        H  0.81512875  0.37356282  0.19484992     0.13100
H366        H  0.78117709  0.39118207  0.30891284     0.13100
H367        H  0.75327101  0.34321694  0.30883607     0.13100
H368        H  0.78713177  0.32630591  0.19480317     0.13100
C369        C  0.78684009  0.12119587  0.03561531    -0.13100
C370        C  0.76508341  0.12902865  0.00666331     0.09100
C371        C  0.78731402  0.12251769  0.47189565    -0.13100
C372        C  0.80268086  0.09470002  0.47156961    -0.13100
C373        C  0.79501068  0.07203624  0.00689340     0.09100
C374        C  0.80164741  0.09299661  0.03571948    -0.13100
H375        H  0.79334300  0.13729271  0.05732640     0.13100
H376        H  0.79263347  0.13839523  0.44945307     0.13100
H377        H  0.81944606  0.08980624  0.44890109     0.13100
H378        H  0.81927119  0.08805400  0.05747796     0.13100
C379        C  0.79792229  0.33499337  0.46862933    -0.13100
C380        C  0.77183185  0.32942620  0.99582512     0.09100
C381        C  0.76635773  0.35031669  0.02509883    -0.13100
C382        C  0.78196132  0.37812552  0.02510766    -0.13100
C383        C  0.80328520  0.38587015  0.99572035     0.09100
C384        C  0.80817436  0.36536834  0.96591835    -0.13100
H385        H  0.80126857  0.32034803  0.44445325     0.13100
H386        H  0.74990718  0.34525152  0.04805429     0.13100
H387        H  0.77720529  0.39369939  0.04802452     0.13100
H388        H  0.82753405  0.36926072  0.44428204     0.13100
C389        C  0.69737058  0.24959635  0.39500587    -0.13100
C390        C  0.71916735  0.23218632  0.41654098     0.09100
C391        C  0.74419066  0.21842107  0.39589333    -0.13100
C392        C  0.74442389  0.21803446  0.35577923    -0.13100
C393        C  0.71959956  0.23137840  0.33424598     0.09100
C394        C  0.69746405  0.24904906  0.35482504    -0.13100
H395        H  0.68054702  0.26434440  0.40899150     0.13100
H396        H  0.76424279  0.20840447  0.41069723     0.13100
H397        H  0.76503644  0.20830087  0.34194484     0.13100
H398        H  0.68025700  0.26283256  0.33980874     0.13100
C399        C  0.74371637  0.24370627  0.10553648    -0.13100
C400        C  0.71832587  0.23112926  0.08415992     0.09100
C401        C  0.69522619  0.21458058  0.10481774    -0.13100
C402        C  0.69502864  0.21424294  0.14494407    -0.13100
C403        C  0.71792742  0.23047584  0.16635410     0.09100
C404        C  0.74353179  0.24334435  0.14565461    -0.13100
H405        H  0.76447311  0.25307661  0.09143881     0.13100
H406        H  0.67741955  0.20133231  0.08996115     0.13100
H407        H  0.67728982  0.20046203  0.15902348     0.13100
H408        H  0.76396982  0.25275660  0.16043580     0.13100
C409        C  0.71850450  0.22963006  0.96075564     0.30300
C410        C  0.71872333  0.23126004  0.54016146     0.30300
C411        C  0.68523187  0.23124822  0.98011865    -0.05900
C412        C  0.73329463  0.20233668  0.98171575    -0.06700
C413        C  0.73612348  0.25621335  0.97941488    -0.06600
C414        C  0.68582268  0.23597155  0.52078423    -0.05900
C415        C  0.73060114  0.20254532  0.52060076    -0.06700
C416        C  0.73888586  0.25565626  0.52021180    -0.06600
C417        C  0.65450517  0.23981818  0.53250017    -0.32000
N418        N  0.63468346  0.23409956  0.99957789     0.14500
C419        C  0.65359078  0.23164226  0.96843378    -0.32000
H420        H  0.64471147  0.23007394  0.93960697     0.16500
C421        C  0.74294840  0.17549414  0.53245924    -0.31000
N422        N  0.75012505  0.15880879  0.50126621     0.13300
C423        C  0.74428791  0.17404604  0.97229678    -0.30900
C424        C  0.75360057  0.28188790  0.53120913    -0.31200
N425        N  0.76344163  0.29704459  0.49979442     0.13800
H426        H  0.75573572  0.29006619  0.55996626     0.16400
C427        C  0.74968755  0.28255338  0.96656539    -0.31200
H428        H  0.75240493  0.28909576  0.93710646     0.16400
H429        H  0.74618128  0.16481771  0.94397605     0.16400
H430        H  0.64578895  0.24147643  0.56137818     0.16500
H431        H  0.74738363  0.16888630  0.56160998     0.16400
C432        C  0.71783641  0.23341770  0.71068534     0.30300
C433        C  0.71769787  0.23137087  0.78978768     0.30300
C434        C  0.68457459  0.23382895  0.73022047    -0.05900
C435        C  0.73363472  0.20602535  0.72902720    -0.06700
C436        C  0.73488463  0.25955775  0.73152864    -0.06600
C437        C  0.68441885  0.23245991  0.77015356    -0.05900
C438        C  0.73330957  0.20460263  0.76874543    -0.06700
C439        C  0.73477879  0.25838158  0.77136826    -0.06600
C440        C  0.65263083  0.23377478  0.78136758    -0.32000
N441        N  0.63406296  0.23650741  0.74989898     0.14500
C442        C  0.65305955  0.23688285  0.71871264    -0.32000
H443        H  0.64438221  0.24022454  0.69003506     0.16500
C444        C  0.74641243  0.17724542  0.77822009    -0.31000
N445        N  0.75601458  0.16298786  0.74598901     0.13300
C446        C  0.74802963  0.18034247  0.71573385    -0.30900
C447        C  0.74985412  0.28396756  0.78437475    -0.31200
N448        N  0.75917573  0.30063779  0.75389276     0.13800
H449        H  0.75371087  0.28996975  0.81381803     0.16400
C450        C  0.74988479  0.28605201  0.72169423    -0.31200
H451        H  0.75292954  0.29468978  0.69318350     0.16400
H452        H  0.75237856  0.17481498  0.68621232     0.16400
H453        H  0.64344922  0.23299746  0.81011146     0.16500
H454        H  0.74772458  0.16763585  0.80634676     0.16400
C455        C  0.85944213  0.48451010  0.95933380     0.30300
C456        C  0.86042833  0.48249093  0.53901981     0.30300
C457        C  0.89257794  0.48567556  0.97860167    -0.05900
C458        C  0.83956954  0.00523754  0.98074095    -0.06700
C459        C  0.84425895  0.45642549  0.97801706    -0.06600
C460        C  0.89309675  0.48565485  0.51857269    -0.05900
C461        C  0.83890548  0.00394788  0.51857175    -0.06700
C462        C  0.84694683  0.45426298  0.51930460    -0.06600
C463        C  0.92058534  0.97678569  0.52832842    -0.32000
N464        N  0.93889264  0.97871796  0.49654975     0.14500
C465        C  0.92088010  0.98150178  0.96523273    -0.32000
H466        H  0.92865666  0.98489295  0.93616904     0.16500
C467        C  0.82301650  0.02923080  0.53091852    -0.31000
N468        N  0.81301693  0.04502241  0.50002748     0.13300
C469        C  0.82121907  0.03006267  0.97194664    -0.30900
C470        C  0.83485016  0.42696569  0.53070454    -0.31200
N471        N  0.82506962  0.41151506  0.49952201     0.13800
H472        H  0.83359652  0.41867569  0.55955420     0.16400
C473        C  0.82851771  0.43091629  0.96574371    -0.31200
H474        H  0.82276203  0.42523093  0.93662644     0.16400
H475        H  0.81435412  0.03739168  0.94382377     0.16400
H476        H  0.93011252  0.97638510  0.55691983     0.16500
H477        H  0.81957655  0.03590555  0.56019367     0.16400
C478        C  0.85968515  0.48408208  0.70941676     0.30300
C479        C  0.85952162  0.48676445  0.78845820     0.30300
C480        C  0.89280837  0.48517227  0.72914262    -0.05900
C481        C  0.84040967  0.00612858  0.72769888    -0.06700
C482        C  0.84383027  0.45737126  0.73042491    -0.06600
C483        C  0.89261893  0.48710513  0.76892393    -0.05900
C484        C  0.83952795  0.00676766  0.76752789    -0.06700
C485        C  0.84322419  0.45900673  0.77019991    -0.06600
C486        C  0.92135311  0.98437219  0.78164877    -0.32000
N487        N  0.94088893  0.98399316  0.75081316     0.14500
C488        C  0.92277808  0.98121215  0.71895318    -0.32000
H489        H  0.93247208  0.98051446  0.69043409     0.16500
C490        C  0.82258117  0.03203634  0.77746604    -0.31000
N491        N  0.81486549  0.04750459  0.74545895     0.13300
C492        C  0.82529714  0.03162211  0.71486225    -0.30900
C493        C  0.82784630  0.43340729  0.78303229    -0.31200
N494        N  0.82047563  0.41573495  0.75274762     0.13800
H495        H  0.82302054  0.42765424  0.81231897     0.16400
C496        C  0.83033765  0.43012124  0.72067635    -0.31200
H497        H  0.82819719  0.42111150  0.69227482     0.16400
H498        H  0.82316751  0.03855211  0.68551131     0.16400
H499        H  0.92928872  0.98694991  0.81076000     0.16500
H500        H  0.81592961  0.03874462  0.80588529     0.16400
O501        O  0.54133200  0.28170025  0.54378349    -0.71500
O502        O  0.54152247  0.25451179  0.94128769    -0.71700
O503        O  0.49697515  0.27128064  0.49033714    -0.71600
O504        O  0.58677989  0.26098001  0.99466142    -0.71600
O505        O  0.58469050  0.21991210  0.50866833    -0.71600
O506        O  0.49226403  0.21903713  0.00912232    -0.71600
O507        O  0.53491416  0.20704529  0.95396073    -0.71500
O508        O  0.54140114  0.23476764  0.56114541    -0.71700
V509        V  0.54225294  0.26845300  0.49276303     1.35200
V510        V  0.53931150  0.22354533  0.50982694     1.35200
C511        C  0.54143769  0.26219364  0.56967573     0.77700
C512        C  0.53769613  0.22789084  0.93008596     0.77800
C513        C  0.48007193  0.24938212  0.50122687     0.77600
C514        C  0.60153237  0.24281730  0.50148588     0.77600
O515        O  0.53962627  0.25734532  0.80931143    -0.71500
O516        O  0.54381052  0.28070493  0.70671785    -0.71700
O517        O  0.49643810  0.27320224  0.75749346    -0.71600
O518        O  0.58716305  0.26433718  0.75930349    -0.71600
O519        O  0.58211353  0.21832422  0.73938636    -0.71600
O520        O  0.49130294  0.22600054  0.74265160    -0.71600
O521        O  0.53646050  0.23418844  0.68972959    -0.71500
O522        O  0.53672822  0.21034723  0.79255784    -0.71700
V523        V  0.54168132  0.26800821  0.75781241     1.35200
V524        V  0.53677749  0.22309969  0.74136864     1.35200
C525        C  0.53767145  0.23005573  0.81817580     0.77700
C526        C  0.54033745  0.26138396  0.68098406     0.77800
C527        C  0.47856974  0.25092250  0.75053215     0.77600
C528        C  0.59997491  0.23982230  0.74955995     0.77600
O529        O  0.04381870  0.46232667  0.95317133    -0.71500
O530        O  0.03721783  0.48694303  0.55725264    -0.71700
O531        O  0.99594649  0.46755089  0.00450460    -0.71600
O532        O  0.08554902  0.47901430  0.50851611    -0.71600
O533        O  0.07419751  0.02992737  0.99060396    -0.71600
O534        O  0.98286049  0.01066892  0.48962536    -0.71600
O535        O  0.02443916  0.02842278  0.54311209    -0.71500
O536        O  0.03302478  0.01027188  0.93841927    -0.71700
V537        V  0.04135430  0.47362863  0.00503282     1.35200
V538        V  0.02768534  0.01825016  0.49123735     1.35200
C539        C  0.03997053  0.98372906  0.92953945     0.77700
C540        C  0.02817876  0.00810971  0.56752570     0.77800
C541        C  0.97255422  0.98452195  0.49627875     0.77600
C542        C  0.09212687  0.00716591  0.49982827     0.77600
O543        O  0.07660114  0.02750504  0.75538419    -0.71500
O544        O  0.98642817  0.01418879  0.75838817    -0.71700
O545        O  0.03477041  0.01091105  0.80837512    -0.71600
O546        O  0.02832856  0.03061757  0.70431742    -0.71600
O547        O  0.03852981  0.48635637  0.68645798    -0.71600
O548        O  0.04174773  0.46300157  0.78995894    -0.71600
O549        O  0.99466560  0.47097259  0.73856812    -0.71500
O550        O  0.08542761  0.47793926  0.73731209    -0.71700
V551        V  0.03166354  0.01994222  0.75627298     1.35200
V552        V  0.03998720  0.47547935  0.73838065     1.35200
C553        C  0.09558858  0.00619796  0.74802549     0.77700
C554        C  0.97486325  0.98857308  0.75120843     0.77800
C555        C  0.03994692  0.98417011  0.81827485     0.77600
C556        C  0.03071741  0.01012718  0.67977866     0.77600
C557        C  0.36324872  0.26509846  0.96251389     0.30300
C558        C  0.36362871  0.26275799  0.54194383     0.30300
C559        C  0.39578170  0.25891946  0.98204132    -0.05900
C560        C  0.35260291  0.29420028  0.98163855    -0.06700
C561        C  0.34176583  0.24171294  0.98254995    -0.06600
C562        C  0.39670682  0.26081595  0.52218300    -0.05900
C563        C  0.34819989  0.28974329  0.52206262    -0.06700
C564        C  0.34612070  0.23633651  0.52260208    -0.06600
C565        C  0.42772752  0.25440903  0.53326188    -0.32000
N566        N  0.44605589  0.25187643  0.50166819     0.14500
C567        C  0.42623652  0.25103483  0.97045255    -0.32000
H568        H  0.43473203  0.24869990  0.94153970     0.16500
C569        C  0.33199897  0.31500530  0.53343232    -0.31000
N570        N  0.32223811  0.33018926  0.50190640     0.13300
C571        C  0.33770650  0.31977848  0.96918075    -0.30900
C572        C  0.33138258  0.21034964  0.53447307    -0.31200
N573        N  0.32198130  0.19455420  0.50341590     0.13800
H574        H  0.32858414  0.20288707  0.56354817     0.16400
C575        C  0.32577916  0.21618078  0.97147382    -0.31200
H576        H  0.32277765  0.20843979  0.94258897     0.16400
H577        H  0.33328474  0.32550289  0.93976522     0.16400
H578        H  0.43651225  0.25137694  0.56194593     0.16500
H579        H  0.32703129  0.32137953  0.56251302     0.16400
C580        C  0.36168086  0.26615010  0.71272759     0.30300
C581        C  0.36222756  0.26607939  0.79199094     0.30300
C582        C  0.39470439  0.26213426  0.73204772    -0.05900
C583        C  0.34869498  0.29429166  0.73273731    -0.06700
C584        C  0.34226627  0.24106492  0.73254512    -0.06600
C585        C  0.39507571  0.26225541  0.77203171    -0.05900
C586        C  0.34895500  0.29412988  0.77251704    -0.06700
C587        C  0.34249878  0.24107895  0.77247542    -0.06600
C588        C  0.42641970  0.25695390  0.78294346    -0.32000
N589        N  0.44456053  0.25402785  0.75125965     0.14500
C590        C  0.42566029  0.25640850  0.72019321    -0.32000
H591        H  0.43413804  0.25385697  0.69133052     0.16500
C592        C  0.33500183  0.32028325  0.78453507    -0.31000
N593        N  0.32627871  0.33643561  0.75346828     0.13300
C594        C  0.33450537  0.32068937  0.72172136    -0.30900
C595        C  0.32579355  0.21603194  0.78402908    -0.31200
N596        N  0.31527878  0.20104611  0.75279276     0.13800
H597        H  0.32208795  0.20880329  0.81302746     0.16400
C598        C  0.32565839  0.21582754  0.72135621    -0.31200
H599        H  0.32267084  0.20780505  0.69258672     0.16400
H600        H  0.32975762  0.32748248  0.69275967     0.16400
H601        H  0.43560504  0.25458755  0.81153383     0.16500
H602        H  0.33156204  0.32701127  0.81382244     0.16400
C603        C  0.21581644  0.51034935  0.53887620     0.30300
C604        C  0.21688037  0.51532389  0.96008542     0.30300
C605        C  0.18282065  0.50934276  0.51887053    -0.05900
C606        C  0.22627452  0.04349375  0.52135687    -0.06700
C607        C  0.23283588  0.48401088  0.51902107    -0.06600
C608        C  0.18349918  0.51467711  0.97965094    -0.05900
C609        C  0.22735098  0.04681041  0.98133608    -0.06700
C610        C  0.23359396  0.48814495  0.97861272    -0.06600
C611        C  0.15178750  0.51276235  0.96818246    -0.32000
N612        N  0.13262325  0.50649811  0.49827096     0.14500
C613        C  0.15124459  0.50587983  0.52981226    -0.32000
H614        H  0.14227488  0.50279252  0.55842646     0.16500
C615        C  0.24047822  0.07385985  0.97074405    -0.31000
N616        N  0.25167786  0.08479789  0.50328605     0.13300
C617        C  0.24205406  0.06869538  0.53400862    -0.30900
C618        C  0.24914648  0.46266721  0.96612157    -0.31200
N619        N  0.25620120  0.44212799  0.49893974     0.13800
H620        H  0.25404799  0.45694530  0.93682745     0.16400
C621        C  0.24633413  0.45736371  0.53022214    -0.31200
H622        H  0.24777021  0.44898409  0.55902347     0.16400
H623        H  0.24649694  0.07467025  0.56336127     0.16400
H624        H  0.14269962  0.51405258  0.93944194     0.16500
H625        H  0.24248649  0.08236442  0.94206416     0.16400
C626        C  0.21510047  0.51448414  0.78900962     0.30300
C627        C  0.21684197  0.51287186  0.70976973     0.30300
C628        C  0.18278835  0.50878427  0.76853828    -0.05900
C629        C  0.22594341  0.04699916  0.77089349    -0.06700
C630        C  0.23696674  0.49076533  0.77080052    -0.06600
C631        C  0.18384752  0.50730801  0.72858236    -0.05900
C632        C  0.22634659  0.04707854  0.73102417    -0.06700
C633        C  0.23761477  0.48962547  0.73096985    -0.06600
C634        C  0.15272081  0.50359745  0.71607512    -0.32000
N635        N  0.13304205  0.50444695  0.74667090     0.14500
C636        C  0.15078804  0.50794888  0.77862948    -0.32000
H637        H  0.14082177  0.51052532  0.80684853     0.16500
C638        C  0.23981727  0.07383280  0.71974682    -0.31000
N639        N  0.24741100  0.08997623  0.75132862     0.13300
C640        C  0.23856564  0.07399409  0.78248683    -0.30900
C641        C  0.25342714  0.46362680  0.72150405    -0.31200
N642        N  0.26372782  0.44996355  0.75373117     0.13800
H643        H  0.25517022  0.45387667  0.69345379     0.16400
C644        C  0.25352386  0.46623238  0.78408108    -0.31200
H645        H  0.25673838  0.46013409  0.81358442     0.16400
H646        H  0.24089271  0.08176037  0.81147881     0.16400
H647        H  0.14463803  0.50152278  0.68698706     0.16500
H648        H  0.24454216  0.08063751  0.69075672     0.16400
C649        C  0.23858266  0.03073056  0.89587293    -0.13100
C650        C  0.21708598  0.51473978  0.91568583     0.09100
C651        C  0.19501924  0.49687327  0.89514289    -0.13100
C652        C  0.19414122  0.49691817  0.85501445    -0.13100
C653        C  0.21573538  0.51441454  0.83337139     0.09100
C654        C  0.23893539  0.03010028  0.85570772    -0.13100
H655        H  0.25909522  0.04022512  0.91036151     0.13100
H656        H  0.17856167  0.48223293  0.91005426     0.13100
H657        H  0.17707793  0.48232853  0.84108395     0.13100
H658        H  0.25963948  0.03928522  0.84119591     0.13100
C659        C  0.24290186  0.50058578  0.60409435    -0.13100
C660        C  0.21637877  0.51137482  0.58316658     0.09100
C661        C  0.18661630  0.03306130  0.60623256    -0.13100
C662        C  0.18820448  0.03428704  0.64628586    -0.13100
C663        C  0.21762039  0.51333552  0.66537426     0.09100
C664        C  0.24349368  0.50147728  0.64417932    -0.13100
H665        H  0.26390787  0.49213702  0.58954622     0.13100
H666        H  0.16710879  0.04462139  0.59225559     0.13100
H667        H  0.16974594  0.04660646  0.66123437     0.13100
H668        H  0.26506141  0.49396993  0.65821497     0.13100
C669        C  0.30098553  0.15282108  0.78276451    -0.13100
C670        C  0.29742001  0.17338843  0.75284818     0.09100
C671        C  0.27649412  0.16636082  0.72274040    -0.13100
C672        C  0.25987436  0.13910736  0.72231452    -0.13100
C673        C  0.26375978  0.11842581  0.75205194     0.09100
C674        C  0.28436161  0.12565735  0.78236666    -0.13100
H675        H  0.31729086  0.15732364  0.80603077     0.13100
H676        H  0.27282342  0.18202383  0.69963867     0.13100
H677        H  0.24379709  0.13429604  0.69890430     0.13100
H678        H  0.28831142  0.10996053  0.80535695     0.13100
C679        C  0.31506232  0.38535054  0.72373959    -0.13100
C680        C  0.31090401  0.36531520  0.75409202     0.09100
C681        C  0.29171555  0.37399852  0.78514031    -0.13100
C682        C  0.27670681  0.40200382  0.78549745    -0.13100
C683        C  0.28048707  0.42179081  0.75477230     0.09100
C684        C  0.30010553  0.41327405  0.72410801    -0.13100
H685        H  0.33024135  0.37962660  0.69983919     0.13100
H686        H  0.28769504  0.35893190  0.80875935     0.13100
H687        H  0.26143607  0.40776242  0.80930643     0.13100
H688        H  0.30403804  0.42830536  0.70041140     0.13100
C689        C  0.28297153  0.16006229  0.53341608    -0.13100
C690        C  0.30491552  0.16645801  0.50407045     0.09100
C691        C  0.30953799  0.14524504  0.47512314    -0.13100
C692        C  0.29226525  0.11839431  0.47512425    -0.13100
C693        C  0.26995458  0.11219524  0.50406960     0.09100
C694        C  0.26569854  0.13314079  0.53343620    -0.13100
H695        H  0.27865049  0.17616417  0.55583694     0.13100
H696        H  0.32673077  0.14931211  0.45259217     0.13100
H697        H  0.29651403  0.10233359  0.45263228     0.13100
H698        H  0.24846504  0.12900394  0.55591864     0.13100
C699        C  0.26957550  0.39342710  0.46926473    -0.13100
C700        C  0.27249119  0.41366211  0.49963242     0.09100
C701        C  0.29155501  0.40569740  0.53105821    -0.13100
C702        C  0.30747202  0.37821442  0.53201583    -0.13100
C703        C  0.30479613  0.35804863  0.50153791     0.09100
C704        C  0.28547112  0.36585851  0.47025405    -0.13100
H705        H  0.25465917  0.39870761  0.44497981     0.13100
H706        H  0.29498658  0.42449567  0.05390324     0.13100
H707        H  0.32435352  0.37782221  0.05534786     0.13100
H708        H  0.28237951  0.35058990  0.44664691     0.13100
C709        C  0.33445633  0.25897975  0.89750266    -0.13100
C710        C  0.36246313  0.26617962  0.91831688     0.09100
C711        C  0.38819862  0.27843957  0.89733084    -0.13100
C712        C  0.38782195  0.27907115  0.85726607    -0.13100
C713        C  0.36182541  0.26720086  0.83627861     0.09100
C714        C  0.33415471  0.25946632  0.85737902    -0.13100
H715        H  0.31239140  0.25344724  0.91213104     0.13100
H716        H  0.40857485  0.28822482  0.91185128     0.13100
H717        H  0.40773983  0.28967983  0.84290678     0.13100
H718        H  0.31193492  0.25411845  0.84295241     0.13100
C719        C  0.38781150  0.27807746  0.60720771    -0.13100
C720        C  0.36283273  0.26442235  0.58619862     0.09100
C721        C  0.33513040  0.25621898  0.60694720    -0.13100
C722        C  0.33434744  0.25755989  0.64705802    -0.13100
C723        C  0.36127082  0.26708591  0.66833909     0.09100
C724        C  0.38693797  0.27955120  0.64728535    -0.13100
H725        H  0.40784345  0.28847895  0.59275157     0.13100
H726        H  0.31367385  0.24904555  0.59215959     0.13100
H727        H  0.31225208  0.25152043  0.66126548     0.13100
H728        H  0.40634412  0.29100662  0.66166642     0.13100
C729        C  0.04279226  0.97710558  0.85707955    -0.13000
C730        C  0.04297782  0.97645052  0.89084274    -0.14600
C731        C  0.02769550  0.01613582  0.64055054    -0.13000
C732        C  0.02677456  0.01488695  0.60671465    -0.14600
C733        C  0.53663517  0.22220394  0.85694308    -0.13000
C734        C  0.53661939  0.22183229  0.89077819    -0.14600
C735        C  0.54098700  0.26970497  0.64227411    -0.13000
C736        C  0.54137159  0.27030669  0.60842058    -0.14600
C737        C  0.86705729  0.45969957  0.89337721    -0.13100
C738        C  0.86064581  0.48566293  0.91500391     0.09100
C739        C  0.85715866  0.00747419  0.89427826    -0.13100
C740        C  0.85761864  0.00788412  0.85414591    -0.13100
C741        C  0.86102843  0.48700278  0.83278293     0.09100
C742        C  0.86751495  0.46041569  0.85327475    -0.13100
H743        H  0.87216270  0.43866528  0.90744065     0.13100
H744        H  0.85817359  0.02869665  0.90900070     0.13100
H745        H  0.85909608  0.02939332  0.84020078     0.13100
H746        H  0.87311358  0.43989922  0.83828685     0.13100
C747        C  0.87880859  0.99503653  0.60248051    -0.13100
C748        C  0.85997669  0.48323463  0.58319000     0.09100
C749        C  0.83430097  0.47067215  0.60410494    -0.13100
C750        C  0.83400781  0.47106392  0.64419105    -0.19900
C751        C  0.85930692  0.48415400  0.66518416     0.09100
C752        C  0.87956709  0.99548086  0.64267511    -0.13100
H753        H  0.89634266  0.00840549  0.58738580     0.13100
H754        H  0.81387832  0.46103126  0.58954956     0.13100
H755        H  0.81328067  0.46185918  0.65855064     0.13100
H756        H  0.89767940  0.00901058  0.65643927     0.13100
C757        C  0.79030108  0.12465440  0.77583353    -0.13100
C758        C  0.77185326  0.13429648  0.74475727     0.09100
C759        C  0.76875942  0.11530098  0.71303295    -0.13100
C760        C  0.78294792  0.08684817  0.71305849    -0.13100
C761        C  0.80053452  0.07690733  0.74475152     0.09100
C762        C  0.80441613  0.09636636  0.77586127    -0.13100
H763        H  0.79404437  0.13908680  0.80018241     0.13100
H764        H  0.75465010  0.12204557  0.68867479     0.13100
H765        H  0.77952179  0.07240266  0.68866217     0.13100
H766        H  0.81872935  0.08992949  0.80018223     0.13100
C767        C  0.81231267  0.36501451  0.72571662    -0.13100
C768        C  0.80586293  0.38626956  0.75425005     0.09100
C769        C  0.78478356  0.37823109  0.78390304    -0.13100
C770        C  0.76993753  0.34992896  0.78434585    -0.13100
C771        C  0.77571022  0.32914212  0.75503544     0.09100
C772        C  0.79740056  0.33690865  0.72607060    -0.13100
H773        H  0.82907178  0.37000315  0.70308263     0.13100
H774        H  0.77911632  0.39406121  0.80623919     0.13100
H775        H  0.75322427  0.34464444  0.80695848     0.13100
H776        H  0.80292815  0.32112311  0.70363120     0.13100
C777        C  0.76035075  0.10917539  0.53048533    -0.13100
C778        C  0.76585028  0.13002449  0.50120057     0.09100
C779        C  0.75747122  0.10758346  0.97880247    -0.13100
C780        C  0.77222515  0.07942388  0.97893325    -0.13100
C781        C  0.79698960  0.07367981  0.50059144     0.09100
C782        C  0.77576837  0.08125518  0.53015608    -0.13100
H783        H  0.74379103  0.11431369  0.55327634     0.13100
H784        H  0.74023687  0.11267074  0.95668533     0.13100
H785        H  0.76604915  0.06350042  0.95689215     0.13100
H786        H  0.77075365  0.06540895  0.55272728     0.13100
C787        C  0.79268751  0.33743896  0.96600229    -0.13100
C788        C  0.77917588  0.32588887  0.49981173     0.09100
C789        C  0.77617531  0.34539976  0.53106318    -0.13100
C790        C  0.79139516  0.37328844  0.53106498    -0.13100
C791        C  0.80986753  0.38247601  0.49973532     0.09100
C792        C  0.81301208  0.36300813  0.46856166    -0.13100
H793        H  0.79772671  0.32179805  0.94325872     0.13100
H794        H  0.76148713  0.33957562  0.55533347     0.13100
H795        H  0.78804753  0.38794680  0.55523924     0.13100
H796        H  0.82467487  0.37061911  0.94306232     0.13100
C797        C  0.69727346  0.24858253  0.89577945    -0.13100
C798        C  0.71879937  0.23025770  0.91643432     0.09100
C799        C  0.74300795  0.21596440  0.89504256    -0.13100
C800        C  0.74304419  0.21673710  0.85491698    -0.13100
C801        C  0.71849318  0.23131307  0.83416134     0.09100
C802        C  0.69699660  0.24894734  0.85564069    -0.13100
H803        H  0.68077325  0.26316316  0.91061778     0.13100
H804        H  0.76286117  0.20505788  0.90917761     0.13100
H805        H  0.76324181  0.20682369  0.84044050     0.13100
H806        H  0.68019571  0.26366928  0.84146560     0.13100
C807        C  0.74591290  0.24120127  0.60558616    -0.13100
C808        C  0.71939694  0.23045811  0.58444757     0.09100
C809        C  0.69476599  0.21640966  0.60547667    -0.13100
C810        C  0.69438120  0.21723804  0.64555139    -0.13100
C811        C  0.71834892  0.23255069  0.66647214     0.09100
C812        C  0.74527140  0.24250449  0.64564858    -0.13100
H813        H  0.76775271  0.24796338  0.59139410     0.13100
H814        H  0.67586993  0.20426551  0.59100795     0.13100
H815        H  0.67550442  0.20513524  0.66004070     0.13100
H816        H  0.76638713  0.25065304  0.66029587     0.13100
C817        C  0.70642069  0.72738259  0.46089360     0.30300
C818        C  0.70745526  0.72942584  0.04001009     0.30300
C819        C  0.67323920  0.72971938  0.48079077    -0.05900
C820        C  0.72100778  0.69992984  0.48171715    -0.06700
C821        C  0.72473118  0.75361638  0.47914042    -0.06600
C822        C  0.67425111  0.73108725  0.02021359    -0.05900
C823        C  0.72204410  0.70160645  0.02101165    -0.06700
C824        C  0.72566128  0.75521451  0.01977739    -0.06600
C825        C  0.64247473  0.73233165  0.03141954    -0.32000
N826        N  0.62293815  0.73419176  0.50150006     0.14500
C827        C  0.64136674  0.73152387  0.46987647    -0.32000
H828        H  0.63199030  0.73066384  0.44123141     0.16500
C829        C  0.73508261  0.67501191  0.03348386    -0.31000
N830        N  0.74258816  0.65806244  0.00264083     0.13300
C831        C  0.73424910  0.67263117  0.47190294    -0.30900
C832        C  0.74135746  0.78126764  0.03007443    -0.31200
N833        N  0.75139252  0.79588937  0.99817863     0.13800
H834        H  0.74468474  0.78934998  0.05877662     0.16400
C835        C  0.73837001  0.77978673  0.46584046    -0.31200
H836        H  0.74090883  0.78614229  0.43630448     0.16400
H837        H  0.73687400  0.66368671  0.44349457     0.16400
H838        H  0.63336046  0.73457717  0.06005469     0.16500
H839        H  0.73928533  0.66876342  0.06279444     0.16400
C840        C  0.70616890  0.72913489  0.21079577     0.30300
C841        C  0.70721177  0.72829136  0.28997572     0.30300
C842        C  0.67306577  0.72891038  0.23103941    -0.05900
C843        C  0.72292154  0.70236818  0.22951424    -0.06700
C844        C  0.72263241  0.75589845  0.23066874    -0.06600
C845        C  0.67366573  0.72818569  0.27102431    -0.05900
C846        C  0.72320173  0.70147517  0.26932567    -0.06700
C847        C  0.72320605  0.75541554  0.27048801    -0.06600
C848        C  0.64211474  0.72834844  0.28318701    -0.32000
N849        N  0.62273016  0.72958806  0.25232536     0.14500
C850        C  0.64109484  0.73034614  0.22049335    -0.32000
H851        H  0.63163673  0.73286330  0.19208047     0.16500
C852        C  0.73629155  0.67409353  0.27911899    -0.31000
N853        N  0.74501006  0.65932513  0.24689643     0.13300
C854        C  0.73675076  0.67637996  0.21649940    -0.30900
C855        C  0.73789926  0.78155269  0.28225747    -0.31200
N856        N  0.74628289  0.79773866  0.25097367     0.13800
H857        H  0.74239509  0.78815834  0.31136350     0.16400
C858        C  0.73672998  0.78244328  0.21954984    -0.31200
H859        H  0.73922991  0.79056252  0.19070414     0.16400
H860        H  0.73973971  0.66998542  0.18700491     0.16400
H861        H  0.63361213  0.72770637  0.31226701     0.16500
H862        H  0.73897072  0.66516145  0.30746838     0.16400
C863        C  0.85532185  0.97797924  0.45846618     0.30300
C864        C  0.85776364  0.97656527  0.03803412     0.30300
C865        C  0.88826524  0.97770969  0.47785807    -0.05900
C866        C  0.83953957  0.50806627  0.48069671    -0.06700
C867        C  0.83850909  0.95094285  0.47761616    -0.06600
C868        C  0.89058442  0.97694720  0.01754590    -0.05900
C869        C  0.84176742  0.50886760  0.02006115    -0.06700
C870        C  0.84105007  0.95016890  0.01733341    -0.06600
C871        C  0.92516890  0.48372940  0.02889834    -0.32000
N872        N  0.94348632  0.48601309  0.99709140     0.14500
C873        C  0.92336859  0.48918562  0.46606645    -0.32000
H874        H  0.93127933  0.49057553  0.43681287     0.16500
C875        C  0.82339671  0.53251176  0.03291161    -0.31000
N876        N  0.81136719  0.54735091  0.00227816     0.13300
C877        C  0.82078465  0.53235672  0.47089635    -0.30900
C878        C  0.82730657  0.92319207  0.02749437    -0.31200
N879        N  0.81615580  0.90921414  0.99582263     0.13800
H880        H  0.82637760  0.91370936  0.05572712     0.16400
C881        C  0.82195701  0.92587051  0.46550654    -0.31200
H882        H  0.81586696  0.92025191  0.43649650     0.16400
H883        H  0.81435473  0.53929949  0.44247311     0.16400
H884        H  0.93474864  0.48201442  0.05736340     0.16500
H885        H  0.81947917  0.53861646  0.06230669     0.16400
C886        C  0.85674567  0.97662949  0.20868644     0.30300
C887        C  0.85624165  0.97797352  0.28781752     0.30300
C888        C  0.88975318  0.97728181  0.22865588    -0.05900
C889        C  0.84311261  0.50988562  0.22843739    -0.06700
C890        C  0.84077378  0.94956827  0.22892306    -0.06600
C891        C  0.88933452  0.97845393  0.26850657    -0.05900
C892        C  0.84251268  0.51061269  0.26829515    -0.06700
C893        C  0.83985622  0.95061581  0.26876650    -0.06600
C894        C  0.92345334  0.48452347  0.28131327    -0.32000
N895        N  0.94256198  0.48297883  0.25015976     0.14500
C896        C  0.92398972  0.48102959  0.21863464    -0.32000
H897        H  0.93325883  0.47978535  0.18996484     0.16500
C898        C  0.82387755  0.53491392  0.27821170    -0.31000
N899        N  0.81442831  0.54935729  0.24611357     0.13300
C900        C  0.82597168  0.53417271  0.21555083    -0.30900
C901        C  0.82296222  0.92561798  0.28066547    -0.31200
N902        N  0.81514920  0.90874064  0.24986763     0.13800
H903        H  0.81674547  0.91999187  0.30965735     0.16400
C904        C  0.82639980  0.92290218  0.21833141    -0.31200
H905        H  0.82412126  0.91426541  0.18980706     0.16400
H906        H  0.82127406  0.53974381  0.18615299     0.16400
H907        H  0.93188442  0.48685249  0.31028523     0.16500
H908        H  0.81693565  0.54144365  0.30664364     0.16400
O909        O  0.53322634  0.77424325  0.04515135    -0.71500
O910        O  0.52781951  0.75151988  0.44230547    -0.71700
O911        O  0.48655435  0.76852552  0.99277191    -0.71600
O912        O  0.57550877  0.76139497  0.49173408    -0.71600
O913        O  0.57154887  0.71212169  0.00856090    -0.71600
O914        O  0.47990649  0.72347104  0.51393615    -0.71600
O915        O  0.52366988  0.70544301  0.46221461    -0.71500
O916        O  0.52691459  0.72723771  0.06018070    -0.71700
V917        V  0.53155459  0.76264419  0.99301675     1.35200
V918        V  0.52603000  0.71750793  0.00799446     1.35200
C919        C  0.53040532  0.75416221  0.07031982     0.77700
C920        C  0.52511885  0.72393727  0.43505768     0.77800
C921        C  0.46815871  0.74684830  0.00041383     0.77600
C922        C  0.58954514  0.73406456  0.00004649     0.77600
O923        O  0.52731996  0.74927772  0.31321675    -0.71500
O924        O  0.53263432  0.77206284  0.20945679    -0.71700
O925        O  0.48466775  0.76515029  0.26006457    -0.71600
O926        O  0.57537540  0.75636061  0.26328541    -0.71600
O927        O  0.57076182  0.71030778  0.24346605    -0.71600
O928        O  0.47939147  0.71785409  0.24598552    -0.71600
O929        O  0.52526103  0.72545921  0.19316609    -0.71500
O930        O  0.52489604  0.70222497  0.29692531    -0.71700
V931        V  0.52990173  0.75978814  0.26118804     1.35200
V932        V  0.52518154  0.71481983  0.24524302     1.35200
C933        C  0.52552565  0.72199204  0.32260607     0.77700
C934        C  0.52945888  0.75250393  0.18374815     0.77800
C935        C  0.46663459  0.74303914  0.25293104     0.77600
C936        C  0.58848705  0.73209665  0.25317934     0.77600
O937        O  0.04072456  0.96330149  0.45257768    -0.71500
O938        O  0.03428628  0.98641000  0.05777889    -0.71700
O939        O  0.99246479  0.96390532  0.50340852    -0.71600
O940        O  0.08358449  0.98419624  0.00922821    -0.71600
O941        O  0.08088427  0.52448972  0.48664492    -0.71600
O942        O  0.99021338  0.51450521  0.98899263    -0.71600
O943        O  0.03333933  0.53007357  0.04234490    -0.71500
O944        O  0.03619215  0.50744639  0.43672561    -0.71700
V945        V  0.03702543  0.97332411  0.50460751     1.35200
V946        V  0.03565607  0.51881289  0.99043121     1.35200
C947        C  0.04020361  0.48008520  0.42895825     0.77700
C948        C  0.03550119  0.50989234  0.06732397     0.77800
C949        C  0.97769072  0.48936967  0.99662988     0.77600
C950        C  0.09920945  0.50339459  0.99889051     0.77600
O951        O  0.07956398  0.52209318  0.25774323    -0.71500
O952        O  0.98898441  0.51175600  0.25779524    -0.71700
O953        O  0.03574370  0.50520452  0.30871763    -0.71600
O954        O  0.03268838  0.52865158  0.20559899    -0.71600
O955        O  0.03539582  0.98792073  0.18778364    -0.71600
O956        O  0.03994673  0.96610321  0.29105503    -0.71600
O957        O  0.99289834  0.96926194  0.23920551    -0.71500
O958        O  0.08248207  0.98466748  0.23929379    -0.71700
V959        V  0.03435966  0.51603266  0.25706584     1.35200
V960        V  0.03751476  0.97791103  0.23962698     1.35200
C961        C  0.09795464  0.50074822  0.24862587     0.77700
C962        C  0.97661293  0.48662541  0.24989831     0.77800
C963        C  0.03971000  0.47808087  0.31762515     0.77600
C964        C  0.03470139  0.50901855  0.17988978     0.77600
C965        C  0.35039946  0.76532402  0.46214715     0.30300
C966        C  0.35299435  0.76953921  0.04080281     0.30300
C967        C  0.38305529  0.75992822  0.48208902    -0.05900
C968        C  0.33874920  0.79421046  0.48146184    -0.06700
C969        C  0.32922440  0.74131677  0.48193891    -0.06600
C970        C  0.38558390  0.76377839  0.02102665    -0.05900
C971        C  0.34112793  0.79788060  0.02029452    -0.06700
C972        C  0.33211984  0.74485545  0.02212360    -0.06600
C973        C  0.41621925  0.75590892  0.03221317    -0.32000
N974        N  0.43423034  0.75128382  0.00067650     0.14500
C975        C  0.41437325  0.75436232  0.47119401    -0.32000
H976        H  0.42348952  0.75304334  0.44242577     0.16500
C977        C  0.32798505  0.82488431  0.03095527    -0.31000
N978        N  0.31960526  0.84028225  0.99904939     0.13300
C979        C  0.32272277  0.81952525  0.46962782    -0.30900
C980        C  0.32100861  0.71732790  0.03443378    -0.31200
N981        N  0.31330818  0.70019059  0.00386187     0.13800
H982        H  0.32094107  0.70942467  0.06352839     0.16400
C983        C  0.31765299  0.71359912  0.47109604    -0.31200
H984        H  0.31693531  0.70501164  0.44241320     0.16400
H985        H  0.31785279  0.82553509  0.44040695     0.16400
H986        H  0.42497647  0.75347625  0.06097805     0.16500
H987        H  0.32363147  0.83222868  0.05981848     0.16400
C988        C  0.35201297  0.76826223  0.21183322     0.30300
C989        C  0.35093521  0.76638145  0.29091207     0.30300
C990        C  0.38391996  0.75971006  0.23173115    -0.05900
C991        C  0.34281828  0.79746417  0.23253503    -0.06700
C992        C  0.32870665  0.74514944  0.22999526    -0.06600
C993        C  0.38336657  0.75896882  0.27168066    -0.05900
C994        C  0.34220899  0.79641639  0.27219880    -0.06700
C995        C  0.32819795  0.74415507  0.27008210    -0.06600
C996        C  0.41383905  0.75115434  0.28353777    -0.32000
N997        N  0.43250265  0.74681940  0.25240701     0.14500
C998        C  0.41464399  0.75177406  0.22075237    -0.32000
H999        H  0.42374198  0.75032551  0.19201464     0.16500
C1000       C  0.32995939  0.82335323  0.28469632    -0.31000
N1001       N  0.32319856  0.84083127  0.25399692     0.13300
C1002       C  0.33111734  0.82520765  0.22205351    -0.30900
C1003       C  0.31679368  0.71596437  0.27972096    -0.31200
N1004       N  0.30896879  0.70041574  0.24778414     0.13800
H1005       H  0.31622449  0.70673770  0.30807528     0.16400
C1006       C  0.31727692  0.71762783  0.21749153    -0.31200
H1007       H  0.31774816  0.70965487  0.18843797     0.16400
H1008       H  0.32683133  0.83270245  0.19322924     0.16400
H1009       H  0.42210707  0.74913562  0.31259105     0.16500
H1010       H  0.32528398  0.82932432  0.31399208     0.16400
C1011       C  0.21154501  0.01904887  0.04032102     0.30300
C1012       C  0.20938692  0.01779753  0.46119064     0.30300
C1013       C  0.17828479  0.01838975  0.02067269    -0.05900
C1014       C  0.23298485  0.54046088  0.02102313    -0.06700
C1015       C  0.22833426  0.99264004  0.02019168    -0.06600
C1016       C  0.17600266  0.01872453  0.48069974    -0.05900
C1017       C  0.23194879  0.53819350  0.48006673    -0.06700
C1018       C  0.22486600  0.99042243  0.48059275    -0.06600
C1019       C  0.14432619  0.01710734  0.46923651    -0.32000
N1020       N  0.12776898  0.01581916  0.00068146     0.14500
C1021       C  0.14674323  0.01494308  0.03193405    -0.32000
H1022       H  0.13808075  0.01109659  0.06053401     0.16500
C1023       C  0.24432913  0.56570917  0.46984016    -0.31000
N1024       N  0.25684262  0.58313119  0.00412160     0.13300
C1025       C  0.24796038  0.56599374  0.03435159    -0.30900
C1026       C  0.23870296  0.96396806  0.46874997    -0.31200
N1027       N  0.25309476  0.95177132  0.99897169     0.13800
H1028       H  0.24292400  0.95745142  0.43955905     0.16400
C1029       C  0.24337205  0.96644668  0.03079231    -0.31200
H1030       H  0.24633928  0.95806403  0.05940467     0.16400
H1031       H  0.25206391  0.57161608  0.06389616     0.16400
H1032       H  0.13526512  0.01719517  0.44045612     0.16500
H1033       H  0.24587800  0.57469609  0.44137283     0.16400
C1034       C  0.21001639  0.01902458  0.29015656     0.30300
C1035       C  0.21163239  0.01845048  0.21100055     0.30300
C1036       C  0.17709326  0.01827828  0.26962307    -0.05900
C1037       C  0.23057287  0.54017755  0.26816598    -0.06700
C1038       C  0.22782230  0.99268185  0.27130835    -0.06600
C1039       C  0.17806053  0.01720536  0.22970905    -0.05900
C1040       C  0.23092755  0.53907621  0.22839265    -0.06700
C1041       C  0.22868344  0.99220430  0.23148691    -0.06600
C1042       C  0.14678655  0.01438572  0.21724746    -0.32000
N1043       N  0.12705695  0.01564245  0.24775652     0.14500
C1044       C  0.14499279  0.01814862  0.27977073    -0.32000
H1045       H  0.13515965  0.01903518  0.30822124     0.16500
C1046       C  0.24469996  0.56544500  0.21564884    -0.31000
N1047       N  0.25249306  0.58271271  0.24625362     0.13300
C1048       C  0.24342438  0.56763939  0.27818960    -0.30900
C1049       C  0.24514081  0.96653197  0.22133164    -0.31200
N1050       N  0.25474058  0.95200295  0.25339834     0.13800
H1051       H  0.24918340  0.95838731  0.19282281     0.16400
C1052       C  0.24404764  0.96770667  0.28400045    -0.31200
H1053       H  0.24805092  0.96160358  0.31342747     0.16400
H1054       H  0.24502527  0.57661553  0.30666479     0.16400
H1055       H  0.13873652  0.01090929  0.18836581     0.16500
H1056       H  0.24878975  0.57147147  0.18625651     0.16400
C1057       C  0.24186238  0.52458828  0.39417374    -0.13100
C1058       C  0.21032528  0.01691207  0.41678256     0.09100
C1059       C  0.18736688  0.00072828  0.39541437    -0.13100
C1060       C  0.18723027  0.00134987  0.35524438    -0.13100
C1061       C  0.21026216  0.01795169  0.33449922     0.09100
C1062       C  0.24126196  0.52541824  0.35407086    -0.13100
H1063       H  0.26231142  0.53440207  0.40842530     0.13100
H1064       H  0.16972257  0.98690152  0.40961319     0.13100
H1065       H  0.16942731  0.98805718  0.34053293     0.13100
H1066       H  0.26129625  0.53577460  0.33962433     0.13100
C1067       C  0.23891343  0.00904915  0.10547733    -0.13100
C1068       C  0.21232708  0.01984023  0.08458809     0.09100
C1069       C  0.19211225  0.52611499  0.10460831    -0.13100
C1070       C  0.19189569  0.52552915  0.14459922    -0.13100
C1071       C  0.21257505  0.01970092  0.16671729     0.09100
C1072       C  0.23899268  0.00888681  0.14563049    -0.13100
H1073       H  0.26014450  0.00117550  0.09089989     0.13100
H1074       H  0.17300483  0.53804885  0.09040822     0.13100
H1075       H  0.17261586  0.53705142  0.15907179     0.13100
H1076       H  0.26025225  0.00091096  0.16001048     0.13100
C1077       C  0.30037129  0.65024036  0.27694051    -0.13100
C1078       C  0.29600062  0.67019069  0.24638853     0.09100
C1079       C  0.27778479  0.66033502  0.21497205    -0.13100
C1080       C  0.26388624  0.63157955  0.21454188    -0.13100
C1081       C  0.26772090  0.61198020  0.24558711     0.09100
C1082       C  0.28646431  0.62164701  0.27654205    -0.13100
H1083       H  0.31478164  0.65651880  0.30125389     0.13100
H1084       H  0.27357405  0.67512983  0.19110588     0.13100
H1085       H  0.24944405  0.62501879  0.19033503     0.13100
H1086       H  0.29064347  0.60696406  0.30051788     0.13100
C1087       C  0.31308682  0.89118552  0.22670121    -0.13100
C1088       C  0.30714794  0.86955093  0.25493835     0.09100
C1089       C  0.28441042  0.87601604  0.28338152    -0.13100
C1090       C  0.26756545  0.90318214  0.28318330    -0.13100
C1091       C  0.27299836  0.92450785  0.25447299     0.09100
C1092       C  0.29619665  0.91834893  0.22647955    -0.13100
H1093       H  0.33078659  0.88704654  0.20478901     0.13100
H1094       H  0.27891787  0.85968163  0.30521184     0.13100
H1095       H  0.24964073  0.90717521  0.30487309     0.13100
H1096       H  0.30131286  0.93461976  0.20442087     0.13100
C1097       C  0.28124979  0.66056246  0.03563625    -0.13100
C1098       C  0.30078054  0.66994912  0.00517274     0.09100
C1099       C  0.30697519  0.64959538  0.97556503    -0.13100
C1100       C  0.29317695  0.62097024  0.97574923    -0.13100
C1101       C  0.27279996  0.61192262  0.00553396     0.09100
C1102       C  0.26747999  0.63185155  0.03584934    -0.13100
H1103       H  0.27578877  0.67575430  0.05872314     0.13100
H1104       H  0.32251784  0.65574340  0.95215313     0.13100
H1105       H  0.29838453  0.60588371  0.95246383     0.13100
H1106       H  0.25177017  0.62564511  0.05909429     0.13100
C1107       C  0.26486165  0.90281453  0.96950085    -0.13100
C1108       C  0.27043087  0.92393581  0.99835439     0.09100
C1109       C  0.29305661  0.91748084  0.02680596    -0.13100
C1110       C  0.30949346  0.89021117  0.02672534    -0.13100
C1111       C  0.30357241  0.86884136  0.99824503     0.09100
C1112       C  0.28125275  0.87549406  0.96946047    -0.13100
H1113       H  0.24729045  0.90716851  0.94749826     0.13100
H1114       H  0.28320991  0.92432410  0.55628942     0.13100
H1115       H  0.31109037  0.87674381  0.55674646     0.13100
H1116       H  0.27588515  0.85928041  0.94745542     0.13100
C1117       C  0.32354496  0.75582609  0.39643858    -0.13100
C1118       C  0.35002301  0.76638338  0.41774534     0.09100
C1119       C  0.37474755  0.78061261  0.39688075    -0.13100
C1120       C  0.37485533  0.78081546  0.35662552    -0.13100
C1121       C  0.35014570  0.76694001  0.33534564     0.09100
C1122       C  0.32361659  0.75606922  0.35631095    -0.13100
H1123       H  0.30208412  0.74804036  0.41064887     0.13100
H1124       H  0.39416766  0.79176093  0.41168133     0.13100
H1125       H  0.39446456  0.79190119  0.34208455     0.13100
H1126       H  0.30216998  0.74851181  0.34189651     0.13100
C1127       C  0.37838173  0.78271234  0.10660506    -0.13100
C1128       C  0.35236437  0.77123677  0.08516741     0.09100
C1129       C  0.32457961  0.76328652  0.10588784    -0.13100
C1130       C  0.32432732  0.76289931  0.14600431    -0.13100
C1131       C  0.35184717  0.77049539  0.16748818     0.09100
C1132       C  0.37813192  0.78232765  0.14687715    -0.13100
H1133       H  0.39901655  0.79224141  0.09235273     0.13100
H1134       H  0.30274326  0.75720957  0.09106807     0.13100
H1135       H  0.30222724  0.75671677  0.16014565     0.13100
H1136       H  0.39865926  0.79139897  0.16185256     0.13100
C1137       C  0.04102274  0.47023818  0.35654110    -0.13000
C1138       C  0.04120787  0.47100625  0.39044503    -0.14600
C1139       C  0.03363399  0.51676632  0.14074070    -0.13000
C1140       C  0.03392798  0.51686503  0.10670464    -0.14600
C1141       C  0.52430120  0.71426529  0.36203782    -0.13000
C1142       C  0.52405963  0.71462607  0.39621353    -0.14600
C1143       C  0.53065007  0.76026268  0.14426863    -0.13000
C1144       C  0.53100557  0.76100035  0.11006336    -0.14600
C1145       C  0.86076417  0.95147601  0.39321985    -0.13100
C1146       C  0.85706841  0.97825191  0.41419945     0.09100
C1147       C  0.85958517  0.51090905  0.39484821    -0.13100
C1148       C  0.85971108  0.51119502  0.35470833    -0.13100
C1149       C  0.85769156  0.97829335  0.33210565     0.09100
C1150       C  0.86103765  0.95148912  0.35314435    -0.13100
H1151       H  0.86410051  0.93031299  0.40768665     0.13100
H1152       H  0.86019790  0.53219441  0.40951761     0.13100
H1153       H  0.86065488  0.53267985  0.34068205     0.13100
H1154       H  0.86458178  0.93034491  0.33874951     0.13100
C1155       C  0.88242283  0.49909714  0.10423580    -0.13100
C1156       C  0.85747535  0.97673310  0.08227659     0.09100
C1157       C  0.83214574  0.96352907  0.10312123    -0.13100
C1158       C  0.83169762  0.96384113  0.14313323    -0.19900
C1159       C  0.85650765  0.97738834  0.16438909     0.09100
C1160       C  0.88207848  0.49919878  0.14438281    -0.13100
H1161       H  0.90049855  0.51239882  0.09001090     0.13100
H1162       H  0.81159430  0.95411421  0.08873644     0.13100
H1163       H  0.81084801  0.95461181  0.15716264     0.13100
H1164       H  0.89996432  0.51247644  0.15898789     0.13100
C1165       C  0.75558904  0.60908135  0.27360761    -0.13100
C1166       C  0.76105347  0.63077448  0.24538369     0.09100
C1167       C  0.78331819  0.62462774  0.21637080    -0.13100
C1168       C  0.80034840  0.59764320  0.21614699    -0.13100
C1169       C  0.79544955  0.57628579  0.24492508     0.09100
C1170       C  0.77259245  0.58211896  0.27337176    -0.13100
H1171       H  0.73813333  0.61295464  0.29587175     0.13100
H1172       H  0.78830474  0.64109737  0.19453599     0.13100
H1173       H  0.81808917  0.59387662  0.19415180     0.13100
H1174       H  0.76783724  0.56580591  0.29545903     0.13100
C1175       C  0.80280795  0.85913481  0.22180984    -0.13100
C1176       C  0.79766488  0.88072644  0.25029194     0.09100
C1177       C  0.77499688  0.87456846  0.27897784    -0.13100
C1178       C  0.75808435  0.84738220  0.27924775    -0.13100
C1179       C  0.76332400  0.82589081  0.25074157     0.09100
C1180       C  0.78576219  0.83211632  0.22195065    -0.13100
H1181       H  0.82042709  0.86287064  0.19968053     0.13100
H1182       H  0.77001371  0.89090915  0.30092253     0.13100
H1183       H  0.74059436  0.84329106  0.30144972     0.13100
H1184       H  0.79060893  0.81576623  0.19994571     0.13100
C1185       C  0.75660239  0.60978993  0.03377404    -0.13100
C1186       C  0.75920445  0.62972359  0.00288343     0.09100
C1187       C  0.78412950  0.62410574  0.47699320    -0.13100
C1188       C  0.80070796  0.59692605  0.47671318    -0.13100
C1189       C  0.79325533  0.57489572  0.00274567     0.09100
C1190       C  0.77349809  0.58257964  0.03368924    -0.13100
H1191       H  0.74132632  0.61509094  0.05772816     0.13100
H1192       H  0.78968518  0.64069866  0.45549537     0.13100
H1193       H  0.81872927  0.59315893  0.45504174     0.13100
H1194       H  0.77088556  0.56747685  0.05759620     0.13100
C1195       C  0.78254120  0.83395159  0.46479171    -0.13100
C1196       C  0.76762688  0.82458978  0.99707447     0.09100
C1197       C  0.76443247  0.84492113  0.02738545    -0.13100
C1198       C  0.78006459  0.87262594  0.02662361    -0.13100
C1199       C  0.79929536  0.88090684  0.99552730     0.09100
C1200       C  0.80220481  0.86090359  0.96483026    -0.13100
H1201       H  0.78691471  0.81829041  0.44186190     0.13100
H1202       H  0.74942096  0.83972796  0.05158576     0.13100
H1203       H  0.77677498  0.88779651  0.05032443     0.13100
H1204       H  0.81597648  0.86604467  0.44230437     0.13100
C1205       C  0.68569805  0.74601734  0.39550576    -0.13100
C1206       C  0.70711000  0.72791651  0.41656190     0.09100
C1207       C  0.73215309  0.71434633  0.39563490    -0.13100
C1208       C  0.73263354  0.71485910  0.35550463    -0.13100
C1209       C  0.70812703  0.72902386  0.33433081     0.09100
C1210       C  0.68620918  0.74657109  0.35537231    -0.13100
H1211       H  0.66880688  0.76042454  0.40998534     0.13100
H1212       H  0.75223650  0.70416152  0.41011071     0.13100
H1213       H  0.75307945  0.70506673  0.34133154     0.13100
H1214       H  0.66947531  0.76112767  0.34083294     0.13100
C1215       C  0.73433490  0.73882887  0.10569586    -0.13100
C1216       C  0.70781302  0.72846031  0.08433662     0.09100
C1217       C  0.68345769  0.71362491  0.10507547    -0.13100
C1218       C  0.68293775  0.71374829  0.14515777    -0.13100
C1219       C  0.70696368  0.72843212  0.16650357     0.09100
C1220       C  0.73396117  0.73871443  0.14585636    -0.13100
H1221       H  0.75587057  0.74645731  0.09151392     0.13100
H1222       H  0.66500391  0.70107003  0.09044957     0.13100
H1223       H  0.66410157  0.70135124  0.15927284     0.13100
H1224       H  0.75520094  0.74636970  0.16068831     0.13100
C1225       C  0.70759249  0.72861588  0.96080975     0.30300
C1226       C  0.70696145  0.72939846  0.53997854     0.30300
C1227       C  0.67433168  0.73033715  0.98024577    -0.05900
C1228       C  0.72189211  0.70094007  0.98117635    -0.06700
C1229       C  0.72578956  0.75449027  0.98000401    -0.06600
C1230       C  0.67362414  0.73093058  0.52073425    -0.05900
C1231       C  0.72133475  0.70116192  0.52153159    -0.06700
C1232       C  0.72475426  0.75498964  0.51887341    -0.06600
C1233       C  0.64216519  0.73393817  0.53258437    -0.32000
N1234       N  0.62369647  0.73120364  0.00004357     0.14500
C1235       C  0.64261994  0.73017003  0.96870865    -0.32000
H1236       H  0.63376134  0.72917019  0.93983089     0.16500
C1237       C  0.73520337  0.67499404  0.53452528    -0.31000
N1238       N  0.74333698  0.65791475  0.50400207     0.13300
C1239       C  0.73389119  0.67339230  0.97082409    -0.30900
C1240       C  0.73735895  0.78266486  0.52831566    -0.31200
N1241       N  0.74621815  0.79734766  0.49605980     0.13800
H1242       H  0.73914652  0.79193649  0.55659150     0.16400
C1243       C  0.74194027  0.77956488  0.96747223    -0.31200
H1244       H  0.74534066  0.78596909  0.93810782     0.16400
H1245       H  0.73558474  0.66467765  0.94225378     0.16400
H1246       H  0.63373883  0.73634883  0.56150773     0.16500
H1247       H  0.73977597  0.66918461  0.56388672     0.16400
C1248       C  0.70769809  0.73223500  0.71057762     0.30300
C1249       C  0.70874097  0.73103571  0.78977655     0.30300
C1250       C  0.67482219  0.73271797  0.73070192    -0.05900
C1251       C  0.72363552  0.70500076  0.72904853    -0.06700
C1252       C  0.72474399  0.75861674  0.73066371    -0.06600
C1253       C  0.67521263  0.73195233  0.77067770    -0.05900
C1254       C  0.72404654  0.70390444  0.76883301    -0.06700
C1255       C  0.72544311  0.75788149  0.77051090    -0.06600
C1256       C  0.64358164  0.73342640  0.78237803    -0.32000
N1257       N  0.62464215  0.73528925  0.75113514     0.14500
C1258       C  0.64321924  0.73507767  0.71957887    -0.32000
H1259       H  0.63424984  0.73744702  0.69089080     0.16500
C1260       C  0.73648647  0.67610970  0.77816554    -0.31000
N1261       N  0.74451593  0.66123556  0.74567789     0.13300
C1262       C  0.73646722  0.67871853  0.71561019    -0.30900
C1263       C  0.73930277  0.78433885  0.78255050    -0.31200
N1264       N  0.74684624  0.80106591  0.75146702     0.13800
H1265       H  0.74347790  0.79092271  0.81177293     0.16400
C1266       C  0.73739530  0.78585703  0.71991085    -0.31200
H1267       H  0.73858410  0.79468078  0.69135066     0.16400
H1268       H  0.73890964  0.67248430  0.68599244     0.16400
H1269       H  0.63472201  0.73324490  0.81129078     0.16500
H1270       H  0.73918813  0.66704264  0.80643021     0.16400
C1271       C  0.85619459  0.97932120  0.95906938     0.30300
C1272       C  0.85552628  0.97705077  0.53771037     0.30300
C1273       C  0.88964197  0.97874285  0.97775269    -0.05900
C1274       C  0.84111093  0.50962560  0.98028437    -0.06700
C1275       C  0.83972354  0.95179061  0.97754830    -0.06600
C1276       C  0.88864382  0.97680907  0.51769889    -0.05900
C1277       C  0.84051537  0.50750316  0.52050293    -0.06700
C1278       C  0.83887206  0.95018988  0.51758038    -0.06600
C1279       C  0.92508007  0.48630070  0.52877515    -0.32000
N1280       N  0.94299195  0.48895329  0.49681437     0.14500
C1281       C  0.92396828  0.48733941  0.96629354    -0.32000
H1282       H  0.93205737  0.48928149  0.93712826     0.16500
C1283       C  0.82293685  0.53154152  0.53355521    -0.31000
N1284       N  0.81130646  0.54675805  0.50309821     0.13300
C1285       C  0.82131073  0.53299642  0.97031294    -0.30900
C1286       C  0.82357030  0.92390775  0.52809031    -0.31200
N1287       N  0.81317105  0.90944881  0.49628891     0.13800
H1288       H  0.82068894  0.91545432  0.55668017     0.16400
C1289       C  0.82352326  0.92648755  0.96518314    -0.31200
H1290       H  0.81719530  0.92112842  0.93615379     0.16400
H1291       H  0.81379677  0.53880945  0.94184634     0.16400
H1292       H  0.93493923  0.48470854  0.55715365     0.16500
H1293       H  0.81988982  0.53811793  0.56295668     0.16400
C1294       C  0.85771662  0.97945564  0.70907748     0.30300
C1295       C  0.85686608  0.98095401  0.78834585     0.30300
C1296       C  0.89077487  0.98034403  0.72931722    -0.05900
C1297       C  0.84252438  0.51109174  0.72743232    -0.06700
C1298       C  0.84180464  0.95249598  0.72948416    -0.06600
C1299       C  0.89010536  0.98152045  0.76924280    -0.05900
C1300       C  0.84204572  0.51243858  0.76724996    -0.06700
C1301       C  0.84085312  0.95354730  0.76930120    -0.06600
C1302       C  0.92407550  0.49053134  0.78048683    -0.32000
N1303       N  0.94312126  0.48969753  0.74921803     0.14500
C1304       C  0.92457547  0.48579612  0.71796821    -0.32000
H1305       H  0.93381786  0.48405252  0.68933533     0.16500
C1306       C  0.82345182  0.53691643  0.77659755    -0.31000
N1307       N  0.81354187  0.55074942  0.74416630     0.13300
C1308       C  0.82510800  0.53509694  0.71397577    -0.30900
C1309       C  0.82373399  0.92876912  0.78127480    -0.31200
N1310       N  0.81540521  0.91215930  0.75041665     0.13800
H1311       H  0.81772740  0.92320710  0.81033028     0.16400
C1312       C  0.82672712  0.92627267  0.71887087    -0.31200
H1313       H  0.82386289  0.91808581  0.69019299     0.16400
H1314       H  0.82043013  0.54021769  0.68440419     0.16400
H1315       H  0.93250210  0.49351050  0.80937010     0.16500
H1316       H  0.81702948  0.54403830  0.80489879     0.16400
O1317       O  0.53219308  0.77965711  0.54368850    -0.71500
O1318       O  0.53006607  0.75261438  0.94081008    -0.71700
O1319       O  0.48446720  0.76932654  0.49337194    -0.71600
O1320       O  0.57684024  0.75892151  0.99199639    -0.71600
O1321       O  0.57109381  0.71570159  0.51290931    -0.71600
O1322       O  0.48035369  0.72155735  0.00811209    -0.71600
O1323       O  0.52484554  0.70556880  0.95632449    -0.71500
O1324       O  0.52744576  0.73370457  0.56388657    -0.71700
V1325       V  0.52989198  0.76457625  0.49323978     1.35200
V1326       V  0.52560598  0.72045553  0.51285480     1.35200
C1327       C  0.53064253  0.76131838  0.57092736     0.77700
C1328       C  0.52709182  0.72549017  0.93106817     0.77800
C1329       C  0.46676416  0.74766730  0.50347600     0.77600
C1330       C  0.58871369  0.73718623  0.50203229     0.77600
O1331       O  0.53124770  0.75488514  0.81138191    -0.71500
O1332       O  0.53457749  0.78181671  0.70933660    -0.71700
O1333       O  0.48767779  0.77320174  0.76088804    -0.71600
O1334       O  0.57816782  0.76344700  0.76093278    -0.71600
O1335       O  0.57247023  0.71745283  0.74118949    -0.71600
O1336       O  0.48163983  0.72734251  0.74080602    -0.71600
O1337       O  0.52888584  0.73561725  0.69038378    -0.71500
O1338       O  0.52530295  0.70875348  0.79222819    -0.71700
V1339       V  0.53279803  0.76744376  0.76022249     1.35200
V1340       V  0.52719141  0.72317389  0.74153896     1.35200
C1341       C  0.52776200  0.72742924  0.81898969     0.77700
C1342       C  0.53223757  0.76304406  0.68260148     0.77800
C1343       C  0.46935246  0.75203246  0.75087365     0.77600
C1344       C  0.59061653  0.73879225  0.75123649     0.77600
O1345       O  0.04381317  0.96427202  0.95505296    -0.71500
O1346       O  0.03380751  0.98160172  0.55697449    -0.71700
O1347       O  0.99432678  0.96642673  0.00413719    -0.71600
O1348       O  0.08188896  0.98101156  0.50670499    -0.71600
O1349       O  0.08082533  0.52499833  0.99084928    -0.71600
O1350       O  0.99006556  0.51662658  0.48801275    -0.71600
O1351       O  0.03473977  0.53358402  0.53906768    -0.71500
O1352       O  0.03782170  0.50939289  0.93821860    -0.71700
V1353       V  0.03881594  0.97620917  0.00619704     1.35200
V1354       V  0.03556367  0.51968165  0.48799494     1.35200
C1355       C  0.04168510  0.48248194  0.92817036     0.77700
C1356       C  0.03537580  0.51438053  0.56543477     0.77800
C1357       C  0.97710058  0.49180863  0.49616608     0.77600
C1358       C  0.09855106  0.50322102  0.49777285     0.77600
O1359       O  0.08167106  0.52498337  0.75336538    -0.71500
O1360       O  0.99059844  0.51734445  0.75734398    -0.71700
O1361       O  0.03899349  0.51003605  0.80637406    -0.71600
O1362       O  0.03344372  0.53310432  0.70335761    -0.71600
O1363       O  0.03581455  0.98355807  0.69013402    -0.71600
O1364       O  0.04231034  0.96396446  0.79355909    -0.71600
O1365       O  0.99383977  0.96732520  0.74336325    -0.71500
O1366       O  0.08407918  0.98067051  0.74021956    -0.71700
V1367       V  0.03622155  0.52048595  0.75468113     1.35200
V1368       V  0.03886152  0.97482223  0.74210429     1.35200
C1369       C  0.09890363  0.50247331  0.74548170     0.77700
C1370       C  0.97727224  0.49274807  0.74862234     0.77800
C1371       C  0.04131109  0.48282544  0.81557188     0.77600
C1372       C  0.03538295  0.51362605  0.67751722     0.77600
C1373       C  0.35241666  0.76809157  0.96162643     0.30300
C1374       C  0.34996679  0.76579597  0.54125900     0.30300
C1375       C  0.38528169  0.76323491  0.98105107    -0.05900
C1376       C  0.34080016  0.79706198  0.98057119    -0.06700
C1377       C  0.33182806  0.74406839  0.98209895    -0.06600
C1378       C  0.38270155  0.75983311  0.52201238    -0.05900
C1379       C  0.33857845  0.79443694  0.52117137    -0.06700
C1380       C  0.32895121  0.74164294  0.52197323    -0.06600
C1381       C  0.41354902  0.75341195  0.53395602    -0.32000
N1382       N  0.43254088  0.75063527  0.50286341     0.14500
C1383       C  0.41582156  0.75559436  0.96940663    -0.32000
H1384       H  0.42412737  0.75282318  0.94047441     0.16500
C1385       C  0.32230027  0.81974800  0.53230998    -0.31000
N1386       N  0.31290797  0.83515538  0.50078662     0.13300
C1387       C  0.32733465  0.82341983  0.96819236    -0.30900
C1388       C  0.31714724  0.71421497  0.53358084    -0.31200
N1389       N  0.30938072  0.69767907  0.50255030     0.13800
H1390       H  0.31675753  0.70582711  0.56244791     0.16400
C1391       C  0.32073714  0.71597159  0.97194716    -0.31200
H1392       H  0.31970886  0.70712087  0.94337925     0.16400
H1393       H  0.32306686  0.82964644  0.93887894     0.16400
H1394       H  0.42188413  0.75142706  0.56293945     0.16500
H1395       H  0.31619095  0.82550404  0.56129377     0.16400
C1396       C  0.35267770  0.76764253  0.71159015     0.30300
C1397       C  0.35271052  0.76772355  0.79075155     0.30300
C1398       C  0.38589540  0.76590063  0.73100467    -0.05900
C1399       C  0.33743808  0.79482353  0.73126789    -0.06700
C1400       C  0.33542286  0.74129696  0.73125259    -0.06600
C1401       C  0.38596172  0.76612170  0.77103793    -0.05900
C1402       C  0.33734683  0.79483245  0.77101761    -0.06700
C1403       C  0.33526007  0.74126953  0.77109441    -0.06600
C1404       C  0.41703767  0.76000212  0.78229999    -0.32000
N1405       N  0.43537911  0.75624472  0.75086657     0.14500
C1406       C  0.41676137  0.75913011  0.71952698    -0.32000
H1407       H  0.42512699  0.75581609  0.69071597     0.16500
C1408       C  0.32285997  0.82098802  0.78246463    -0.31000
N1409       N  0.31446076  0.83686981  0.75100869     0.13300
C1410       C  0.32324576  0.82105968  0.71964251    -0.30900
C1411       C  0.32123081  0.71463505  0.78217613    -0.31200
N1412       N  0.31277442  0.69876784  0.75062989     0.13800
H1413       H  0.31789309  0.70719066  0.81113046     0.16400
C1414       C  0.32212228  0.71463477  0.71958570    -0.31200
H1415       H  0.32067027  0.70675625  0.69059936     0.16400
H1416       H  0.31950754  0.82809200  0.69052643     0.16400
H1417       H  0.42567188  0.75710642  0.81106169     0.16500
H1418       H  0.31935205  0.82825141  0.81154814     0.16400
C1419       C  0.20904544  0.01706503  0.54041195     0.30300
C1420       C  0.21157393  0.01982831  0.96114727     0.30300
C1421       C  0.17590105  0.01765147  0.52072024    -0.05900
C1422       C  0.23171868  0.53755395  0.51987807    -0.06700
C1423       C  0.22452111  0.98997139  0.52038614    -0.06600
C1424       C  0.17824056  0.01955560  0.98070531    -0.05900
C1425       C  0.23301737  0.54191714  0.98119660    -0.06700
C1426       C  0.22837555  0.99323356  0.98039390    -0.06600
C1427       C  0.14646942  0.01889267  0.96936725    -0.32000
N1428       N  0.12570228  0.01342658  0.50045772     0.14500
C1429       C  0.14449934  0.01316278  0.53183583    -0.32000
H1430       H  0.13591266  0.00870774  0.56033111     0.16500
C1431       C  0.24734225  0.56888574  0.97179192    -0.31000
N1432       N  0.25267522  0.58102865  0.50177002     0.13300
C1433       C  0.24478948  0.56407317  0.53248493    -0.30900
C1434       C  0.24385253  0.96783181  0.96806683    -0.31200
N1435       N  0.24648374  0.94741227  0.49996186     0.13800
H1436       H  0.24826463  0.96161430  0.93878335     0.16400
C1437       C  0.23741853  0.96299330  0.53142441    -0.31200
H1438       H  0.23925745  0.95491545  0.56031649     0.16400
H1439       H  0.24812665  0.57053355  0.56187663     0.16400
H1440       H  0.13741783  0.01943244  0.94056792     0.16500
H1441       H  0.24959498  0.57828294  0.94361834     0.16400
C1442       C  0.21247220  0.01865179  0.79031914     0.30300
C1443       C  0.21311658  0.01894943  0.71104448     0.30300
C1444       C  0.17945169  0.01595775  0.77023519    -0.05900
C1445       C  0.22614827  0.54324941  0.76865480    -0.06700
C1446       C  0.23189177  0.99376431  0.77071326    -0.06600
C1447       C  0.18003279  0.01526712  0.73028568    -0.05900
C1448       C  0.22741807  0.54233696  0.72888082    -0.06700
C1449       C  0.23217712  0.99371140  0.73082817    -0.06600
C1450       C  0.14890099  0.01088033  0.71816637    -0.32000
N1451       N  0.12949507  0.01073154  0.74894073     0.14500
C1452       C  0.14749729  0.01416833  0.78076433    -0.32000
H1453       H  0.13774883  0.01512724  0.80921323     0.16500
C1454       C  0.24053941  0.56909442  0.71702155    -0.31000
N1455       N  0.24675839  0.58629855  0.74815508     0.13300
C1456       C  0.23718455  0.57094023  0.77955608    -0.30900
C1457       C  0.24700263  0.96749455  0.71984964    -0.31200
N1458       N  0.25624243  0.95227212  0.75140743     0.13800
H1459       H  0.24907478  0.95891224  0.69119461     0.16400
C1460       C  0.24698363  0.96802436  0.78259684    -0.31200
H1461       H  0.25003208  0.96081601  0.81173310     0.16400
H1462       H  0.23845752  0.57925679  0.80832280     0.16400
H1463       H  0.14068607  0.00783762  0.68925055     0.16500
H1464       H  0.24651934  0.57487949  0.68797765     0.16400
C1465       C  0.24140234  0.52874891  0.89398530    -0.13100
C1466       C  0.21266225  0.01861240  0.91685644     0.09100
C1467       C  0.19024945  0.00148252  0.89594327    -0.13100
C1468       C  0.19053353  0.00096454  0.85583154    -0.13100
C1469       C  0.21331375  0.01750313  0.83468119     0.09100
C1470       C  0.24084739  0.52839869  0.85383498    -0.13100
H1471       H  0.26180924  0.53897671  0.90775163     0.13100
H1472       H  0.17265037  0.98784126  0.91052963     0.13100
H1473       H  0.17324026  0.98684719  0.84156368     0.13100
H1474       H  0.26071878  0.53864070  0.83884589     0.13100
C1475       C  0.23760726  0.00806700  0.60476262    -0.13100
C1476       C  0.21026875  0.01805802  0.58464558     0.09100
C1477       C  0.19280150  0.52705946  0.60411181    -0.13100
C1478       C  0.19346908  0.52806968  0.64425162    -0.13100
C1479       C  0.21318211  0.02011749  0.66670066     0.09100
C1480       C  0.23901178  0.00900891  0.64484725    -0.13100
H1481       H  0.25832185  0.99976454  0.58948771     0.13100
H1482       H  0.17394955  0.53909450  0.58952601     0.13100
H1483       H  0.17491900  0.54060458  0.65879215     0.13100
H1484       H  0.26081053  0.00154072  0.65852976     0.13100
C1485       C  0.29648427  0.65137556  0.78188109    -0.13100
C1486       C  0.29649022  0.67015854  0.74982723     0.09100
C1487       C  0.27983795  0.66071165  0.71706938    -0.13100
C1488       C  0.26356705  0.63329621  0.71643515    -0.13100
C1489       C  0.26337545  0.61469451  0.74862788     0.09100
C1490       C  0.28018377  0.62403868  0.78126169    -0.13100
H1491       H  0.30945593  0.65744085  0.80735412     0.13100
H1492       H  0.27869828  0.67472037  0.69200061     0.13100
H1493       H  0.25066489  0.62697537  0.69098614     0.13100
H1494       H  0.28139862  0.60999900  0.80630114     0.13100
C1495       C  0.30771302  0.88719377  0.72306536    -0.13100
C1496       C  0.29961867  0.86594610  0.75095410     0.09100
C1497       C  0.27708922  0.87356267  0.77904923    -0.13100
C1498       C  0.26295978  0.90194719  0.77930208    -0.13100
C1499       C  0.27110196  0.92321146  0.75149006     0.09100
C1500       C  0.29357808  0.91558497  0.72331762    -0.13100
H1501       H  0.32536829  0.88198525  0.70143786     0.13100
H1502       H  0.27013848  0.85740438  0.80049303     0.13100
H1503       H  0.24525589  0.90712923  0.80087792     0.13100
H1504       H  0.30045113  0.93173855  0.70182306     0.13100
C1505       C  0.27669887  0.65827442  0.53356880    -0.13100
C1506       C  0.29598631  0.66782787  0.50301018     0.09100
C1507       C  0.30114526  0.64807548  0.47249729    -0.13100
C1508       C  0.28701305  0.61968606  0.47224242    -0.13100
C1509       C  0.26742092  0.61027125  0.50251402     0.09100
C1510       C  0.26259514  0.62978976  0.53334527    -0.13100
H1511       H  0.27186561  0.67309026  0.55725311     0.13100
H1512       H  0.31638269  0.65434836  0.44888766     0.13100
H1513       H  0.29179400  0.60492340  0.44849407     0.13100
H1514       H  0.24735503  0.62332959  0.55689344     0.13100
C1515       C  0.26048748  0.89920340  0.46879367    -0.13100
C1516       C  0.26241084  0.91865794  0.50018558     0.09100
C1517       C  0.28060216  0.90975380  0.53190107    -0.13100
C1518       C  0.29667948  0.88233201  0.53217104    -0.13100
C1519       C  0.29514891  0.86297837  0.50070584     0.09100
C1520       C  0.27662611  0.87165234  0.46906562    -0.13100
H1521       H  0.24629195  0.90510664  0.44414395     0.13100
H1522       H  0.29818777  0.93366191  0.04894704     0.13100
H1523       H  0.32696473  0.88585593  0.04883624     0.13100
H1524       H  0.27436198  0.85712885  0.44458574     0.13100
C1525       C  0.32495419  0.75889199  0.89619397    -0.13100
C1526       C  0.35181351  0.76883489  0.91730535     0.09100
C1527       C  0.37682312  0.78248804  0.89636669    -0.13100
C1528       C  0.37694055  0.78248567  0.85622574    -0.13100
C1529       C  0.35201495  0.76888118  0.83507726     0.09100
C1530       C  0.32498239  0.75909871  0.85601247    -0.13100
H1531       H  0.30349972  0.75131181  0.91065396     0.13100
H1532       H  0.39641472  0.79347710  0.91102986     0.13100
H1533       H  0.39648512  0.79374246  0.84185114     0.13100
H1534       H  0.30353303  0.75174354  0.84137899     0.13100
C1535       C  0.37493506  0.78176581  0.60548388    -0.13100
C1536       C  0.34971668  0.76762423  0.58543310     0.09100
C1537       C  0.32323343  0.75784705  0.60725031    -0.13100
C1538       C  0.32391649  0.75857969  0.64732133    -0.13100
C1539       C  0.35133894  0.76851963  0.66740189     0.09100
C1540       C  0.37585728  0.78202345  0.64558205    -0.13100
H1541       H  0.39418620  0.79271457  0.59014845     0.13100
H1542       H  0.30153282  0.75011096  0.59348456     0.13100
H1543       H  0.30267517  0.75142344  0.66254670     0.13100
H1544       H  0.39571270  0.79324236  0.65940632     0.13100
C1545       C  0.04312375  0.47529322  0.85475850    -0.13000
C1546       C  0.04327694  0.47543254  0.88880200    -0.14600
C1547       C  0.03426044  0.52188866  0.63846067    -0.13000
C1548       C  0.03426330  0.52266570  0.60441770    -0.14600
C1549       C  0.52663524  0.71836306  0.85771544    -0.13000
C1550       C  0.52642621  0.71799610  0.89176323    -0.14600
C1551       C  0.53307074  0.77182213  0.64364063    -0.13000
C1552       C  0.53246540  0.77101557  0.60953616    -0.14600
C1553       C  0.86255982  0.95395327  0.89344761    -0.13100
C1554       C  0.85714486  0.98026750  0.91483594     0.09100
C1555       C  0.85954907  0.51298387  0.89458240    -0.13100
C1556       C  0.85950874  0.51362950  0.85441758    -0.13100
C1557       C  0.85784818  0.98110185  0.83268337     0.09100
C1558       C  0.86290346  0.95436266  0.85336451    -0.13100
H1559       H  0.86698937  0.93285922  0.90767808     0.13100
H1560       H  0.85978705  0.53416931  0.90944099     0.13100
H1561       H  0.85963235  0.53523060  0.84059265     0.13100
H1562       H  0.86756027  0.93354631  0.83858113     0.13100
C1563       C  0.88237536  0.50035761  0.60408160    -0.13100
C1564       C  0.85548687  0.97839794  0.58215590     0.09100
C1565       C  0.82991049  0.96672162  0.60401225    -0.13100
C1566       C  0.83033549  0.96770150  0.64417932    -0.19900
C1567       C  0.85667088  0.97971565  0.66458951     0.09100
C1568       C  0.88194919  0.50092207  0.64412142    -0.13100
H1569       H  0.89976573  0.51428812  0.58961182     0.13100
H1570       H  0.80886692  0.95765905  0.59021446     0.13100
H1571       H  0.80933731  0.95965118  0.65910925     0.13100
H1572       H  0.89904899  0.51522532  0.65847635     0.13100
C1573       C  0.75577440  0.61119197  0.77279760    -0.13100
C1574       C  0.75987493  0.63228681  0.74356466     0.09100
C1575       C  0.78029943  0.62512673  0.71297347    -0.13100
C1576       C  0.79722524  0.59800776  0.71251278    -0.13100
C1577       C  0.79409030  0.57749236  0.74264776     0.09100
C1578       C  0.77262677  0.58414993  0.77231677    -0.13100
H1579       H  0.73960544  0.61560651  0.79621477     0.13100
H1580       H  0.78419025  0.64095733  0.69011465     0.13100
H1581       H  0.81367453  0.59364062  0.68934057     0.13100
H1582       H  0.76891797  0.56847681  0.79538564     0.13100
C1583       C  0.80113194  0.86363107  0.72096062    -0.13100
C1584       C  0.79757740  0.88435335  0.75075753     0.09100
C1585       C  0.77639385  0.87738135  0.78073429    -0.13100
C1586       C  0.75954423  0.85015097  0.78101783    -0.13100
C1587       C  0.76334920  0.82949265  0.75120293     0.09100
C1588       C  0.78416312  0.83665912  0.72111531    -0.13100
H1589       H  0.81761523  0.86785580  0.69779267     0.13100
H1590       H  0.77257971  0.89302804  0.80378684     0.13100
H1591       H  0.74332710  0.84536846  0.80430820     0.13100
H1592       H  0.78802696  0.82097826  0.69808194     0.13100
C1593       C  0.75496782  0.60835755  0.53311112    -0.13100
C1594       C  0.76081624  0.63001717  0.50485528     0.09100
C1595       C  0.77908716  0.62196216  0.97221976    -0.13100
C1596       C  0.79583969  0.59499506  0.97213788    -0.13100
C1597       C  0.79439137  0.57492062  0.50426668     0.09100
C1598       C  0.77163807  0.58099333  0.53281666    -0.13100
H1599       H  0.73708467  0.61238461  0.55487281     0.13100
H1600       H  0.78240212  0.63712158  0.94850396     0.13100
H1601       H  0.81151718  0.59026698  0.94836792     0.13100
H1602       H  0.76636637  0.56436299  0.55437377     0.13100
C1603       C  0.78664742  0.83297993  0.96566276    -0.13100
C1604       C  0.76144575  0.82648730  0.49458995     0.09100
C1605       C  0.75677647  0.84740366  0.52403502    -0.13100
C1606       C  0.77363592  0.87454487  0.52446021    -0.13100
C1607       C  0.79534845  0.88165658  0.49528437     0.09100
C1608       C  0.79928152  0.86125064  0.46511376    -0.13100
H1609       H  0.78996152  0.81780932  0.94198113     0.13100
H1610       H  0.74011637  0.84281407  0.54689894     0.13100
H1611       H  0.76952822  0.89012411  0.54756112     0.13100
H1612       H  0.81709244  0.86655208  0.94062878     0.13100
C1613       C  0.68747698  0.74839479  0.89567314    -0.13100
C1614       C  0.70854034  0.72974945  0.91647430     0.09100
C1615       C  0.73326041  0.71586062  0.89535000    -0.13100
C1616       C  0.73375063  0.71669796  0.85521834    -0.13100
C1617       C  0.70962228  0.73155118  0.83419982     0.09100
C1618       C  0.68808745  0.74936298  0.85550908    -0.13100
H1619       H  0.67059672  0.76267019  0.91044664     0.13100
H1620       H  0.75304606  0.70506372  0.90968651     0.13100
H1621       H  0.75390947  0.70651462  0.84090097     0.13100
H1622       H  0.67167238  0.76435028  0.84117872     0.13100
C1623       C  0.73321101  0.74273954  0.60481876    -0.13100
C1624       C  0.70778028  0.72942644  0.58424556     0.09100
C1625       C  0.68495105  0.71328071  0.60578706    -0.13100
C1626       C  0.68497125  0.71414090  0.64592146    -0.13100
C1627       C  0.70778577  0.73127146  0.66632858     0.09100
C1628       C  0.73319358  0.74364925  0.64486842    -0.13100
H1629       H  0.75396512  0.75155854  0.59021707     0.13100
H1630       H  0.66701902  0.69968994  0.59162283     0.13100
H1631       H  0.66720409  0.70100550  0.66095565     0.13100
H1632       H  0.75392290  0.75318976  0.65888094     0.13100
loop_ 
_geom_bond_atom_site_label_1 
_geom_bond_atom_site_label_2 
_geom_bond_distance 
_geom_bond_site_symmetry_2 
_ccdc_geom_bond_type 
C1            C3   1.545       .  S
C1            C5   1.536       .  S
C1            C4   1.548       .  S
C1          C390   1.562       .  S
C2            C6   1.545       .  S
C2            C8   1.546       .  S
C2            C7   1.536       .  S
C2          C400   1.558       .  S
C3           C11   1.378       .  A
C3          C414   1.408       .  A
C4           C15   1.378       .  A
C4          C415   1.402       .  A
C5           C19   1.375       .  A
C5          C416   1.401       .  A
C6            C9   1.379       .  A
C6          C411   1.405   1_554  A
C7           C13   1.376       .  A
C7          C412   1.402   1_554  A
C8           C16   1.380       .  A
C8          C413   1.401   1_554  A
C9           H22   1.082       .  S
C9          N418   1.355   1_554  A
N10          C11   1.352       .  A
N10         C417   1.352       .  A
N10         C514   1.420       .  S
C11          H12   1.081       .  S
C13          H23   1.082       .  S
C13          N14   1.358       .  A
N14         C423   1.362   1_554  A
N14         C370   1.443       .  S
C15          H21   1.080       .  S
C15         N422   1.360       .  A
C16          H18   1.080       .  S
C16          N17   1.361   1_554  A
N17         C427   1.360       .  A
N17         C380   1.445       .  S
C19          H20   1.082       .  S
C19         N425   1.360       .  A
C24          C26   1.544       .  S
C24          C28   1.543       .  S
C24          C27   1.536       .  S
C24         C403   1.559       .  S
C25          C29   1.547       .  S
C25          C31   1.535       .  S
C25          C30   1.549       .  S
C25         C393   1.562       .  S
C26          C34   1.378       .  A
C26          C29   1.408       .  A
C27          C38   1.376       .  A
C27          C30   1.403       .  A
C28          C42   1.375       .  A
C28          C31   1.399       .  A
C29          C32   1.380       .  A
C30          C36   1.378       .  A
C31          C39   1.375       .  A
C32          H45   1.082       .  S
C32          N33   1.355       .  A
N33          C34   1.353       .  A
N33         C120   1.424       .  S
C34          H35   1.081       .  S
C36          H46   1.079       .  S
C36          N37   1.361       .  A
N37          C38   1.359       .  A
N37         C350   1.444       .  S
C38          H44   1.083       .  S
C39          H41   1.082       .  S
C39          N40   1.360       .  A
N40          C42   1.361       .  A
N40         C363   1.443       .  S
C42          H43   1.080       .  S
C47          C49   1.537       .  S
C47          C51   1.548       .  S
C47         C330   1.560       .  S
C47         C866   1.548       .  S
C48          C52   1.550       .  S
C48          C54   1.550       .  S
C48         C340   1.562       .  S
C48         C869   1.538       .  S
C49         C873   1.377       .  A
C49         C460   1.403       .  A
C50         C863   1.545   1_545  S
C50          C61   1.378       .  A
C50         C461   1.402       .  A
C51          C65   1.379       .  A
C51         C462   1.403       .  A
C52         C457   1.403   1_554  A
C52         C871   1.384       .  A
C53         C864   1.536   1_545  S
C53          C59   1.377       .  A
C53         C458   1.400   1_554  A
C54          C62   1.380       .  A
C54         C459   1.406   1_554  A
C55         C868   1.380       .  A
C55          H68   1.081       .  S
C55          N56   1.357   1_554  A
N56         C465   1.356       .  A
N56         C133   1.429       .  S
C57         C865   1.374       .  A
C57          H58   1.082       .  S
C57         N464   1.353       .  A
C59          H69   1.082       .  S
C59          N60   1.359       .  A
N60         C469   1.360   1_554  A
N60         C373   1.442       .  S
C61          H67   1.081       .  S
C61         N468   1.359       .  A
C62          H64   1.081       .  S
C62          N63   1.360   1_554  A
N63         C473   1.359       .  A
N63         C383   1.443       .  S
C65          H66   1.080       .  S
C65         N471   1.359       .  A
C70          C72   1.545       .  S
C70          C74   1.546       .  S
C70         C343   1.563       .  S
C70         C889   1.535       .  S
C71          C75   1.537       .  S
C71          C77   1.547       .  S
C71         C333   1.562       .  S
C71         C892   1.546       .  S
C72          C75   1.404       .  A
C72         C896   1.379       .  A
C73         C886   1.539   1_545  S
C73          C84   1.377       .  A
C73          C76   1.401       .  A
C74          C88   1.375       .  A
C74          C77   1.403       .  A
C75         C894   1.376       .  A
C76         C887   1.544   1_545  S
C76          C82   1.376       .  A
C77          C85   1.379       .  A
C78         C891   1.376       .  A
C78          H91   1.083       .  S
C78          N79   1.354       .  A
N79          C80   1.354       .  A
N79         C146   1.424       .  S
C80         C888   1.378       .  A
C80          H81   1.080       .  S
C82          H92   1.079       .  S
C82          N83   1.361       .  A
N83          C84   1.361       .  A
N83         C353   1.444       .  S
C84          H90   1.082       .  S
C85          H87   1.080       .  S
C85          N86   1.361       .  A
N86          C88   1.361       .  A
N86         C360   1.447       .  S
C88          H89   1.078       .  S
O93         V101   1.886   1_554  S
O93         C103   1.258       .  A
O94         V509   1.879       .  S
O94         C104   1.259       .  A
O95         V101   1.893       .  S
O95         C105   1.262   1_556  A
O96         V509   1.894       .  S
O96         C514   1.262       .  A
O97         V102   1.903       .  S
O97         C106   1.264   1_554  A
O98         V510   1.898       .  S
O98         C513   1.263       .  A
O99         V510   1.885       .  S
O99         C104   1.257       .  A
O100        V102   1.878       .  S
O100        C103   1.259       .  A
V101        O502   1.881       .  S
V101        O504   1.897       .  S
V101        V102   2.092   1_556  T
V102        O506   1.906       .  S
V102        O507   1.885   1_554  S
C103        C328   1.409       .  S
C104        C326   1.408       .  S
C105        N158   1.426       .  S
C105        O506   1.265       .  A
C106        N418   1.425       .  S
C106        O504   1.262       .  A
O107        V115   1.877       .  S
O107        C117   1.259       .  A
O108        V115   1.886       .  S
O108        C118   1.258       .  A
O109        V115   1.894       .  S
O109        C119   1.262       .  A
O110        V115   1.896       .  S
O110        C120   1.262       .  A
O111        V116   1.901       .  S
O111        C120   1.264       .  A
O112        V116   1.901       .  S
O112        C119   1.263       .  A
O113        V116   1.879       .  S
O113        C118   1.259       .  A
O114        V116   1.885       .  S
O114        C117   1.258       .  A
V115        V116   2.094       .  T
C117        C325   1.407       .  S
C118        C327   1.409       .  S
C119        N181   1.423       .  S
O121        V129   1.889       .  S
O121        C947   1.258       .  A
O122        V537   1.885       .  S
O122        C948   1.260       .  A
O123        V129   1.900   1_655  S
O123       C1357   1.264       .  A
O124        V537   1.907       .  S
O124        C950   1.265   1_554  A
O125        V538   1.897       .  S
O125        C542   1.262       .  A
O126        V130   1.903   1_655  S
O126        C133   1.265   1_545  A
O127        V130   1.887   1_554  S
O127        C132   1.258       .  A
O128        V538   1.878       .  S
O128        C131   1.258   1_545  A
V129        O530   1.879       .  S
V129        O532   1.900       .  S
V129       V1354   2.092       .  T
V130        O533   1.905       .  S
V130        O536   1.873       .  S
V130       V1353   2.093   1_546  T
C131        O937   1.259       .  A
C131        C322   1.411       .  S
C132        O938   1.260   1_545  A
C132        C324   1.412       .  S
C133       O1347   1.264   1_556  A
C134       N1020   1.428       .  S
C134        O940   1.263   1_545  A
C134        O533   1.264   1_554  A
O135        V143   1.904       .  S
O135        C145   1.265       .  A
O136        V143   1.902   1_655  S
O136        C146   1.265   1_545  A
O137        V143   1.879       .  S
O137        C147   1.259   1_545  A
O138        V143   1.891       .  S
O138        C148   1.259       .  A
O139        V144   1.882       .  S
O139        C964   1.259       .  A
O140        V144   1.891       .  S
O140        C963   1.259       .  A
O141        V144   1.903   1_655  S
O141        C962   1.264       .  A
O142        V144   1.905       .  S
O142        C961   1.265       .  A
V143        V960   2.093   1_545  T
V144        V959   2.092       .  T
C145       N1043   1.426       .  S
C145        O958   1.262   1_545  A
C146        O957   1.262       .  A
C147        O956   1.258       .  A
C147        C321   1.411       .  S
C148        O955   1.259   1_545  A
C148        C323   1.413       .  S
C149        C151   1.542       .  S
C149        C153   1.549       .  S
C149        C152   1.530       .  S
C149        C302   1.561       .  S
C150        C154   1.549       .  S
C150        C156   1.545       .  S
C150        C155   1.540       .  S
C150        C312   1.560       .  S
C151        C159   1.376       .  A
C151        C562   1.408       .  A
C152        C163   1.370       .  A
C152        C563   1.397       .  A
C153        C167   1.378       .  A
C153        C564   1.407       .  A
C154        C157   1.382       .  A
C154        C559   1.406   1_554  A
C155        C161   1.376       .  A
C155        C560   1.397   1_554  A
C156        C164   1.378       .  A
C156        C561   1.404   1_554  A
C157        H170   1.081       .  S
C157        N158   1.356       .  A
N158        C567   1.353   1_554  A
C159        H160   1.081       .  S
C159        N566   1.351       .  A
C161        H171   1.081       .  S
C161        N162   1.365   1_554  A
N162        C571   1.359       .  A
N162        C295   1.444       .  S
C163        H169   1.082       .  S
C163        N570   1.360       .  A
C164        H166   1.081       .  S
C164        N165   1.358       .  A
N165        C575   1.358   1_554  A
N165        C282   1.440       .  S
C167        H168   1.081       .  S
C167        N573   1.361       .  A
C172        C174   1.545       .  S
C172        C176   1.546       .  S
C172        C175   1.537       .  S
C172        C315   1.561       .  S
C173        C177   1.545       .  S
C173        C179   1.546       .  S
C173        C178   1.531       .  S
C173        C305   1.562       .  S
C174        C182   1.378       .  A
C174        C177   1.408       .  A
C175        C186   1.375       .  A
C175        C178   1.399       .  A
C176        C190   1.379       .  A
C176        C179   1.404       .  A
C177        C180   1.378       .  A
C178        C184   1.372       .  A
C179        C187   1.377       .  A
C180        H193   1.082       .  S
C180        N181   1.354       .  A
N181        C182   1.353       .  A
C182        H183   1.081       .  S
C184        H194   1.082       .  S
C184        N185   1.359       .  A
N185        C186   1.361       .  A
N185        C272   1.437       .  S
C186        H192   1.082       .  S
C187        H189   1.080       .  S
C187        N188   1.359       .  A
N188        C190   1.359       .  A
N188        C262   1.443       .  S
C190        H191   1.081       .  S
C195        C197   1.544       .  S
C195        C199   1.536       .  S
C195        C252   1.557       .  S
C195       C1014   1.539       .  S
C196        C200   1.547       .  S
C196        C202   1.540       .  S
C196        C242   1.561       .  S
C196       C1017   1.545       .  S
C197        C205   1.381       .  A
C197        C608   1.404   1_554  A
C198       C1011   1.535       .  S
C198        C209   1.375       .  A
C198        C609   1.401   1_554  A
C199        C213   1.370       .  A
C199        C610   1.400   1_554  A
C200        C203   1.379       .  A
C200        C605   1.407       .  A
C201       C1012   1.547       .  S
C201        C207   1.378       .  A
C201        C606   1.401       .  A
C202        C210   1.377       .  A
C202        C607   1.402       .  A
C203        H216   1.081       .  S
C203        N612   1.354       .  A
N204        C205   1.353   1_556  A
N204        C611   1.355       .  A
N204        C950   1.429       .  S
C205        H206   1.082       .  S
C207        H217   1.081       .  S
C207        N616   1.359       .  A
N208        C209   1.360       .  A
N208        C615   1.359   1_554  A
N208        C285   1.439       .  S
C209        H215   1.082       .  S
C210        H212   1.082       .  S
C210        N619   1.362       .  A
N211        C213   1.358   1_556  A
N211        C618   1.363       .  A
N211        C292   1.443       .  S
C213        H214   1.082       .  S
C218        C220   1.548       .  S
C218        C222   1.536       .  S
C218        C245   1.559       .  S
C218       C1037   1.549       .  S
C219        C223   1.549       .  S
C219        C225   1.542       .  S
C219        C255   1.556       .  S
C219       C1040   1.541       .  S
C220        C228   1.382       .  A
C220        C223   1.405       .  A
C221       C1034   1.546       .  S
C221        C232   1.378       .  A
C221        C224   1.401       .  A
C222        C236   1.375       .  A
C222        C225   1.400       .  A
C223        C226   1.382       .  A
C224       C1035   1.536       .  S
C224        C230   1.375       .  A
C225        C233   1.377       .  A
C226        H239   1.082       .  S
C226        N227   1.354       .  A
N227        C228   1.356       .  A
N227        C961   1.429       .  S
C228        H229   1.081       .  S
C230        H240   1.082       .  S
C230        N231   1.359       .  A
N231        C232   1.361       .  A
N231        C265   1.441       .  S
C232        H238   1.081       .  S
C233        H235   1.081       .  S
C233        N234   1.359       .  A
N234        C236   1.358       .  A
N234        C275   1.437       .  S
C236        H237   1.082       .  S
C241        C246   1.412       .  A
C241       C1058   1.413       .  A
C241        H247   1.079       .  S
C242        C243   1.412       .  A
C242       C1057   1.412       .  A
C243        C244   1.413       .  A
C243        H248   1.081       .  S
C244        C245   1.413       .  A
C244        H249   1.081       .  S
C245       C1062   1.412       .  A
C246       C1061   1.412       .  A
C246        H250   1.080       .  S
C251        C252   1.413       .  A
C251        C256   1.414       .  A
C251        H257   1.081       .  S
C252       C1069   1.410       .  A
C253        C254   1.410       .  A
C253       C1068   1.411       .  A
C253        H258   1.080       .  S
C254       C1071   1.413       .  A
C254        H259   1.081       .  S
C255        C256   1.413       .  A
C255       C1070   1.410       .  A
C256        H260   1.080       .  S
C261        C262   1.406       .  A
C261        C266   1.396       .  A
C261        H267   1.081       .  S
C262        C263   1.407       .  A
C263        C264   1.398       .  A
C263        H268   1.082       .  S
C264        C265   1.405       .  A
C264        H269   1.082       .  S
C265        C266   1.405       .  A
C266        H270   1.082       .  S
C271        C272   1.403       .  A
C271        C276   1.396       .  A
C271        H277   1.083       .  S
C272        C273   1.406       .  A
C273        C274   1.397       .  A
C273        H278   1.082       .  S
C274        C275   1.403       .  A
C274        H279   1.083       .  S
C275        C276   1.405       .  A
C276        H280   1.082       .  S
C281        C282   1.407       .  A
C281        C286   1.398       .  A
C281        H287   1.082       .  S
C282        C283   1.404   1_554  A
C283        C284   1.392       .  A
C283        H288   1.081       .  S
C284        C285   1.404   1_556  A
C284        H289   1.082       .  S
C285        C286   1.405       .  A
C286        H290   1.082       .  S
C291        C292   1.404       .  A
C291        C296   1.399       .  A
C291        H297   1.082       .  S
C292        C293   1.407   1_556  A
C293        C294   1.392       .  A
C293        H706   1.081       .  S
C294        C295   1.402   1_554  A
C294        H707   1.082       .  S
C295        C296   1.411       .  A
C296        H300   1.081       .  S
H298        C701   1.081       .  S
H299        C702   1.082       .  S
C301        C302   1.411       .  A
C301        C306   1.413       .  A
C301        H307   1.081       .  S
C302        C303   1.414       .  A
C303        C304   1.413       .  A
C303        H308   1.080       .  S
C304        C305   1.411       .  A
C304        H309   1.081       .  S
C305        C306   1.414       .  A
C306        H310   1.080       .  S
C311        C312   1.412       .  A
C311        C316   1.414       .  A
C311        H317   1.081       .  S
C312        C313   1.412       .  A
C313        C314   1.412       .  A
C313        H318   1.081       .  S
C314        C315   1.412       .  A
C314        H319   1.081       .  S
C315        C316   1.413       .  A
C316        H320   1.081       .  S
C321        C322   1.191       .  T
C323        C324   1.192       .  T
C325        C326   1.189       .  T
C327        C328   1.190       .  T
C329        C330   1.414       .  A
C329        C334   1.413       .  A
C329        H335   1.080       .  S
C330       C1147   1.411       .  A
C331        C332   1.413       .  A
C331       C1146   1.412   1_545  A
C331        H336   1.080       .  S
C332       C1149   1.412   1_545  A
C332        H337   1.080       .  S
C333        C334   1.412       .  A
C333       C1148   1.413       .  A
C334        H338   1.082       .  S
C339        C344   1.413       .  A
C339       C1156   1.412       .  A
C339        H345   1.081   1_565  S
C340        C341   1.413       .  A
C340       C1155   1.412       .  A
C341        C342   1.414       .  A
C341        H346   1.080       .  S
C342        C343   1.413       .  A
C342        H347   1.080       .  S
C343       C1160   1.412       .  A
C344       C1159   1.413       .  A
C344        H348   1.080   1_565  S
C349        C350   1.406       .  A
C349        C354   1.393       .  A
C349        H355   1.081       .  S
C350        C351   1.407       .  A
C351        C352   1.401       .  A
C351        H356   1.082       .  S
C352        C353   1.408       .  A
C352        H357   1.081       .  S
C353        C354   1.405       .  A
C354        H358   1.081       .  S
C359        C360   1.407       .  A
C359        C364   1.393       .  A
C359        H365   1.080       .  S
C360        C361   1.409       .  A
C361        C362   1.400       .  A
C361        H366   1.081       .  S
C362        C363   1.406       .  A
C362        H367   1.081       .  S
C363        C364   1.404       .  A
C364        H368   1.081       .  S
C369        C370   1.407       .  A
C369        C374   1.400       .  A
C369        H375   1.082       .  S
C370        C779   1.405   1_554  A
C371        C372   1.396       .  A
C371        C778   1.405       .  A
C371        H376   1.083       .  S
C372        C781   1.405       .  A
C372        H377   1.082       .  S
C373        C374   1.406       .  A
C373        C780   1.406   1_554  A
C374        H378   1.083       .  S
C379        C788   1.405       .  A
C379        C792   1.397       .  A
C379        H385   1.081       .  S
C380        C381   1.407   1_556  A
C380        C787   1.407       .  A
C381        C382   1.398       .  A
C381        H386   1.082       .  S
C382        C383   1.405   1_554  A
C382        H387   1.082       .  S
C383        C384   1.406       .  A
C384        C787   1.401       .  A
C384        H796   1.083       .  S
H388        C792   1.082       .  S
C389        C390   1.414       .  A
C389        C394   1.414       .  A
C389        H395   1.079       .  S
C390        C391   1.410       .  A
C391        C392   1.411       .  A
C391        H396   1.081       .  S
C392        C393   1.413       .  A
C392        H397   1.078       .  S
C393        C394   1.412       .  A
C394        H398   1.082       .  S
C399        C400   1.412       .  A
C399        C404   1.411       .  A
C399        H405   1.079       .  S
C400        C401   1.412       .  A
C401        C402   1.412       .  A
C401        H406   1.081       .  S
C402        C403   1.413       .  A
C402        H407   1.080       .  S
C403        C404   1.411       .  A
C404        H408   1.081       .  S
C409        C411   1.545       .  S
C409        C413   1.539       .  S
C409        C412   1.550       .  S
C409        C798   1.560       .  S
C410        C414   1.544       .  S
C410        C416   1.541       .  S
C410        C415   1.535       .  S
C410        C808   1.559       .  S
C411        C419   1.379       .  A
C412        C423   1.382       .  A
C413        C427   1.378       .  A
C414        C417   1.378       .  A
C415        C421   1.376       .  A
C416        C424   1.374       .  A
C417        H430   1.081       .  S
N418        C419   1.353       .  A
C419        H420   1.082       .  S
C421        H431   1.083       .  S
C421        N422   1.359       .  A
N422        C778   1.441       .  S
C423        H429   1.081       .  S
C424        H426   1.079       .  S
C424        N425   1.358       .  A
N425        C788   1.442       .  S
C427        H428   1.082       .  S
C432        C434   1.545       .  S
C432        C436   1.548       .  S
C432        C435   1.530       .  S
C432        C811   1.556       .  S
C433        C437   1.548       .  S
C433        C439   1.540       .  S
C433        C438   1.547       .  S
C433        C801   1.561       .  S
C434        C442   1.379       .  A
C434        C437   1.406       .  A
C435        C446   1.374       .  A
C435        C438   1.399       .  A
C436        C450   1.379       .  A
C436        C439   1.403       .  A
C437        C440   1.381       .  A
C438        C444   1.377       .  A
C439        C447   1.379       .  A
C440        H453   1.081       .  S
C440        N441   1.356       .  A
N441        C442   1.352       .  A
N441        C528   1.426       .  S
C442        H443   1.082       .  S
C444        H454   1.080       .  S
C444        N445   1.360       .  A
N445        C446   1.357       .  A
N445        C758   1.440       .  S
C446        H452   1.083       .  S
C447        H449   1.082       .  S
C447        N448   1.361       .  A
N448        C450   1.362       .  A
N448        C771   1.444       .  S
C450        H451   1.082       .  S
C455        C457   1.537       .  S
C455        C459   1.548       .  S
C455       C1274   1.543       .  S
C455        C738   1.561       .  S
C456        C460   1.544       .  S
C456        C462   1.541       .  S
C456       C1277   1.535       .  S
C456        C748   1.554       .  S
C457       C1281   1.378       .  A
C458       C1271   1.548   1_545  S
C458        C469   1.380       .  A
C459        C473   1.380       .  A
C460       C1279   1.379       .  A
C461       C1272   1.540   1_545  S
C461        C467   1.377       .  A
C462        C470   1.375       .  A
C463       C1276   1.381       .  A
C463        H476   1.081       .  S
C463        N464   1.355       .  A
N464        C541   1.424       .  S
C465       C1273   1.378       .  A
C465        H466   1.083       .  S
C467        H477   1.082       .  S
C467        N468   1.360       .  A
N468        C781   1.442       .  S
C469        H475   1.080       .  S
C470        H472   1.081       .  S
C470        N471   1.357       .  A
N471        C791   1.439       .  S
C473        H474   1.082       .  S
C478        C480   1.544       .  S
C478        C482   1.548       .  S
C478       C1297   1.537       .  S
C478        C751   1.556       .  S
C479        C483   1.539       .  S
C479        C485   1.549       .  S
C479       C1300   1.548       .  S
C479        C741   1.561       .  S
C480       C1304   1.379       .  A
C480        C483   1.402       .  A
C481       C1294   1.537   1_545  S
C481        C492   1.375       .  A
C481        C484   1.402       .  A
C482        C496   1.380       .  A
C482        C485   1.401       .  A
C483       C1302   1.379       .  A
C484       C1295   1.543   1_545  S
C484        C490   1.375       .  A
C485        C493   1.383       .  A
C486       C1299   1.377       .  A
C486        H499   1.082       .  S
C486        N487   1.356       .  A
N487        C488   1.356       .  A
N487        C554   1.428       .  S
C488       C1296   1.381       .  A
C488        H489   1.082       .  S
C490        H500   1.080       .  S
C490        N491   1.359       .  A
N491        C492   1.360       .  A
N491        C761   1.440       .  S
C492        H498   1.081       .  S
C493        H495   1.080       .  S
C493        N494   1.360       .  A
N494        C496   1.361       .  A
N494        C768   1.447       .  S
C496        H497   1.080       .  S
O501        V509   1.890       .  S
O501        C511   1.259       .  A
O502        C512   1.260       .  A
O503        V509   1.890       .  S
O503        C513   1.262       .  A
O505        V510   1.896       .  S
O505        C514   1.263       .  A
O507        C512   1.258       .  A
O508        V510   1.875       .  S
O508        C511   1.258       .  A
V509        V510   2.093       .  T
C511        C736   1.410       .  S
C512        C734   1.410       .  S
C513        N566   1.420       .  S
O515        V523   1.875       .  S
O515        C525   1.258       .  A
O516        V523   1.886       .  S
O516        C526   1.257       .  A
O517        V523   1.897       .  S
O517        C527   1.263       .  A
O518        V523   1.900       .  S
O518        C528   1.264       .  A
O519        V524   1.900       .  S
O519        C528   1.263       .  A
O520        V524   1.897       .  S
O520        C527   1.262       .  A
O521        V524   1.883       .  S
O521        C526   1.260       .  A
O522        V524   1.888       .  S
O522        C525   1.259       .  A
V523        V524   2.093       .  T
C525        C733   1.409       .  S
C526        C735   1.412       .  S
C527        N589   1.422       .  S
O529        V537   1.895   1_556  S
O529       C1355   1.260       .  A
O530       C1356   1.258       .  A
O531        V537   1.908   1_655  S
O531        C949   1.265   1_554  A
O532       C1358   1.264       .  A
O534        V538   1.896   1_655  S
O534        C541   1.263   1_545  A
O535        V538   1.885       .  S
O535        C540   1.258       .  A
O536        C539   1.257   1_545  A
V537        V946   2.092   1_554  T
V538        V945   2.093   1_545  T
C539       O1345   1.258       .  A
C539        C730   1.405       .  S
C540       O1346   1.260   1_545  A
C540        C732   1.413       .  S
C541        O939   1.263       .  A
C542       N1428   1.424       .  S
C542       O1348   1.264   1_545  A
O543        V551   1.900       .  S
O543        C553   1.263       .  A
O544        V551   1.901   1_655  S
O544        C554   1.264   1_545  A
O545        V551   1.881       .  S
O545        C555   1.260   1_545  A
O546        V551   1.894       .  S
O546        C556   1.261       .  A
O547        V552   1.891       .  S
O547       C1372   1.262       .  A
O548        V552   1.899       .  S
O548       C1371   1.262       .  A
O549        V552   1.896   1_655  S
O549       C1370   1.262       .  A
O550        V552   1.894       .  S
O550       C1369   1.261       .  A
V551       V1368   2.093   1_545  T
V552       V1367   2.092       .  T
C553       N1451   1.425       .  S
C553       O1366   1.264   1_545  A
C554       O1365   1.264       .  A
C555       O1364   1.256       .  A
C555        C729   1.406       .  S
C556       O1363   1.257   1_545  A
C556        C731   1.411       .  S
C557        C559   1.543       .  S
C557        C561   1.542       .  S
C557        C560   1.527       .  S
C557        C710   1.556       .  S
C558        C562   1.544       .  S
C558        C564   1.542       .  S
C558        C563   1.533       .  S
C558        C720   1.559       .  S
C559        C567   1.377       .  A
C560        C571   1.370       .  A
C561        C575   1.373       .  A
C562        C565   1.378       .  A
C563        C569   1.372       .  A
C564        C572   1.375       .  A
C565        H578   1.082       .  S
C565        N566   1.353       .  A
C567        H568   1.082       .  S
C569        H579   1.082       .  S
C569        N570   1.361       .  A
N570        C703   1.439       .  S
C571        H577   1.082       .  S
C572        H574   1.082       .  S
C572        N573   1.357       .  A
N573        C690   1.439       .  S
C575        H576   1.080       .  S
C580        C582   1.544       .  S
C580        C584   1.544       .  S
C580        C583   1.537       .  S
C580        C723   1.562       .  S
C581        C585   1.546       .  S
C581        C587   1.544       .  S
C581        C586   1.529       .  S
C581        C713   1.559       .  S
C582        C590   1.378       .  A
C582        C585   1.407       .  A
C583        C594   1.373       .  A
C583        C586   1.400       .  A
C584        C598   1.377       .  A
C584        C587   1.405       .  A
C585        C588   1.380       .  A
C586        C592   1.370       .  A
C587        C595   1.375       .  A
C588        H601   1.081       .  S
C588        N589   1.352       .  A
N589        C590   1.351       .  A
C590        H591   1.081       .  S
C592        H602   1.083       .  S
C592        N593   1.358       .  A
N593        C594   1.363       .  A
N593        C680   1.438       .  S
C594        H600   1.081       .  S
C595        H597   1.081       .  S
C595        N596   1.358       .  A
N596        C598   1.357       .  A
N596        C670   1.438       .  S
C598        H599   1.080       .  S
C603        C605   1.543       .  S
C603        C607   1.539       .  S
C603       C1422   1.533       .  S
C603        C660   1.559       .  S
C604        C608   1.550       .  S
C604        C610   1.542       .  S
C604       C1425   1.551       .  S
C604        C650   1.562       .  S
C605        C613   1.377       .  A
C606       C1419   1.532       .  S
C606        C617   1.374       .  A
C607        C621   1.372       .  A
C608        C611   1.382       .  A
C609       C1420   1.542       .  S
C609        C615   1.374       .  A
C610        C618   1.379       .  A
C611        H624   1.081       .  S
N612        C613   1.354       .  A
N612       C1358   1.425       .  S
C613        H614   1.082       .  S
C615        H625   1.081       .  S
N616        C617   1.357       .  A
N616        C693   1.438       .  S
C617        H623   1.082       .  S
C618        H620   1.081       .  S
N619        C621   1.357       .  A
N619        C700   1.439       .  S
C621        H622   1.082       .  S
C626        C628   1.546       .  S
C626        C630   1.535       .  S
C626       C1445   1.538       .  S
C626        C653   1.561       .  S
C627        C631   1.544       .  S
C627        C633   1.542       .  S
C627       C1448   1.539       .  S
C627        C663   1.562       .  S
C628        C636   1.378       .  A
C628        C631   1.408       .  A
C629       C1442   1.541       .  S
C629        C640   1.374       .  A
C629        C632   1.403       .  A
C630        C644   1.375       .  A
C630        C633   1.402       .  A
C631        C634   1.378       .  A
C632       C1443   1.538       .  S
C632        C638   1.375       .  A
C633        C641   1.374       .  A
C634        H647   1.081       .  S
C634        N635   1.353       .  A
N635        C636   1.354       .  A
N635       C1369   1.424       .  S
C636        H637   1.082       .  S
C638        H648   1.082       .  S
C638        N639   1.361       .  A
N639        C640   1.358       .  A
N639        C673   1.438       .  S
C640        H646   1.081       .  S
C641        H643   1.081       .  S
C641        N642   1.357       .  A
N642        C644   1.359       .  A
N642        C683   1.437       .  S
C644        H645   1.081       .  S
C649       C1466   1.413       .  A
C649        C654   1.413       .  A
C649        H655   1.080       .  S
C650       C1465   1.412       .  A
C650        C651   1.413       .  A
C651        C652   1.412       .  A
C651        H656   1.081       .  S
C652        C653   1.412       .  A
C652        H657   1.080       .  S
C653       C1470   1.413       .  A
C654       C1469   1.413       .  A
C654        H658   1.081       .  S
C659        C660   1.412       .  A
C659        C664   1.411       .  A
C659        H665   1.081       .  S
C660       C1477   1.413       .  A
C661       C1476   1.412       .  A
C661        C662   1.412       .  A
C661        H666   1.080       .  S
C662       C1479   1.413       .  A
C662        H667   1.081       .  S
C663       C1478   1.412       .  A
C663        C664   1.413       .  A
C664        H668   1.078       .  S
C669        C670   1.404       .  A
C669        C674   1.393       .  A
C669        H675   1.082       .  S
C670        C671   1.406       .  A
C671        C672   1.397       .  A
C671        H676   1.082       .  S
C672        C673   1.404       .  A
C672        H677   1.082       .  S
C673        C674   1.405       .  A
C674        H678   1.082       .  S
C679        C680   1.402       .  A
C679        C684   1.392       .  A
C679        H685   1.082       .  S
C680        C681   1.407       .  A
C681        C682   1.396       .  A
C681        H686   1.081       .  S
C682        C683   1.404       .  A
C682        H687   1.082       .  S
C683        C684   1.405       .  A
C684        H688   1.082       .  S
C689        C690   1.407       .  A
C689        C694   1.398       .  A
C689        H695   1.081       .  S
C690        C691   1.403       .  A
C691        C692   1.395       .  A
C691        H696   1.083       .  S
C692        C693   1.405       .  A
C692        H697   1.082       .  S
C693        C694   1.404       .  A
C694        H698   1.083       .  S
C699        C700   1.403       .  A
C699        C704   1.396       .  A
C699        H705   1.082       .  S
C700        C701   1.407       .  A
C701        C702   1.393       .  A
C702        C703   1.403       .  A
C703        C704   1.407       .  A
C704        H708   1.081       .  S
C709        C710   1.413       .  A
C709        C714   1.412       .  A
C709        H715   1.081       .  S
C710        C711   1.410       .  A
C711        C712   1.410       .  A
C711        H716   1.081       .  S
C712        C713   1.412       .  A
C712        H717   1.079       .  S
C713        C714   1.412       .  A
C714        H718   1.081       .  S
C719        C720   1.412       .  A
C719        C724   1.412       .  A
C719        H725   1.080       .  S
C720        C721   1.412       .  A
C721        C722   1.413       .  A
C721        H726   1.081       .  S
C722        C723   1.412       .  A
C722        H727   1.080       .  S
C723        C724   1.413       .  A
C724        H728   1.080       .  S
C729        C730   1.188       .  T
C731        C732   1.192       .  T
C733        C734   1.190       .  T
C735        C736   1.191       .  T
C737        C738   1.410       .  A
C737        C742   1.411       .  A
C737        H743   1.081       .  S
C738       C1555   1.414       .  A
C739       C1554   1.412   1_545  A
C739        C740   1.412       .  A
C739        H744   1.079       .  S
C740       C1557   1.412   1_545  A
C740        H745   1.078       .  S
C741       C1556   1.411       .  A
C741        C742   1.413       .  A
C742        H746   1.081       .  S
C747       C1564   1.414       .  A
C747        C752   1.415       .  A
C747        H753   1.081   1_565  S
C748       C1563   1.410       .  A
C748        C749   1.412       .  A
C749        C750   1.410       .  A
C749        H754   1.081       .  S
C750        C751   1.411       .  A
C750        H755   1.080       .  S
C751       C1568   1.412       .  A
C752       C1567   1.412       .  A
C752        H756   1.079   1_565  S
C757        C758   1.404       .  A
C757        C762   1.391       .  A
C757        H763   1.082       .  S
C758        C759   1.407       .  A
C759        C760   1.399       .  A
C759        H764   1.082       .  S
C760        C761   1.406       .  A
C760        H765   1.082       .  S
C761        C762   1.405       .  A
C762        H766   1.081       .  S
C767        C768   1.406       .  A
C767        C772   1.397       .  A
C767        H773   1.081       .  S
C768        C769   1.409       .  A
C769        C770   1.404       .  A
C769        H774   1.082       .  S
C770        C771   1.407       .  A
C770        H775   1.082       .  S
C771        C772   1.404       .  A
C772        H776   1.082       .  S
C777        C778   1.406       .  A
C777        C782   1.401       .  A
C777        H783   1.082       .  S
C779        C780   1.398       .  A
C779        H784   1.082       .  S
C780        H785   1.082       .  S
C781        C782   1.406       .  A
C782        H786   1.083       .  S
C787        H793   1.082       .  S
C788        C789   1.407       .  A
C789        C790   1.394       .  A
C789        H794   1.081       .  S
C790        C791   1.404       .  A
C790        H795   1.081       .  S
C791        C792   1.404       .  A
C797        C798   1.414       .  A
C797        C802   1.412       .  A
C797        H803   1.080       .  S
C798        C799   1.410       .  A
C799        C800   1.412       .  A
C799        H804   1.080       .  S
C800        C801   1.414       .  A
C800        H805   1.078       .  S
C801        C802   1.411       .  A
C802        H806   1.081       .  S
C807        C808   1.413       .  A
C807        C812   1.411       .  A
C807        H813   1.079       .  S
C808        C809   1.410       .  A
C809        C810   1.410       .  A
C809        H814   1.081       .  S
C810        C811   1.414       .  A
C810        H815   1.080       .  S
C811        C812   1.409       .  A
C812        H816   1.081       .  S
C817        C819   1.551       .  S
C817        C821   1.535       .  S
C817        C820   1.550       .  S
C817       C1206   1.560       .  S
C818        C822   1.549       .  S
C818        C824   1.549       .  S
C818        C823   1.534       .  S
C818       C1216   1.560       .  S
C819        C827   1.383       .  A
C819       C1230   1.406       .  A
C820        C831   1.380       .  A
C820       C1231   1.402       .  A
C821        C835   1.378       .  A
C821       C1232   1.399       .  A
C822       C1227   1.406   1_554  A
C822        C825   1.381       .  A
C823       C1228   1.402   1_554  A
C823        C829   1.376       .  A
C824       C1229   1.400   1_554  A
C824        C832   1.380       .  A
C825        H838   1.081       .  S
C825       N1234   1.353       .  A
N826       C1233   1.355       .  A
N826        C827   1.356       .  A
N826       C1330   1.430       .  S
C827        H828   1.081       .  S
C829        H839   1.082       .  S
C829        N830   1.359       .  A
N830       C1239   1.361   1_554  A
N830       C1186   1.440       .  S
C831        H837   1.082       .  S
C831       N1238   1.360       .  A
C832        H834   1.081       .  S
C832        N833   1.363   1_554  A
N833       C1243   1.360       .  A
N833       C1196   1.446       .  S
C835        H836   1.082       .  S
C835       N1241   1.360       .  A
C840        C842   1.550       .  S
C840        C844   1.542       .  S
C840        C843   1.531       .  S
C840       C1219   1.559       .  S
C841        C845   1.547       .  S
C841        C847   1.540       .  S
C841        C846   1.549       .  S
C841       C1209   1.561       .  S
C842        C850   1.383       .  A
C842        C845   1.407       .  A
C843        C854   1.372       .  A
C843        C846   1.401       .  A
C844        C858   1.376       .  A
C844        C847   1.401       .  A
C845        C848   1.381       .  A
C846        C852   1.381       .  A
C847        C855   1.378       .  A
C848        H861   1.083       .  S
C848        N849   1.354       .  A
N849        C850   1.356       .  A
N849        C936   1.430       .  S
C850        H851   1.080       .  S
C852        H862   1.080       .  S
C852        N853   1.360       .  A
N853        C854   1.356       .  A
N853       C1166   1.438       .  S
C854        H860   1.083       .  S
C855        H857   1.082       .  S
C855        N856   1.361       .  A
N856        C858   1.358       .  A
N856       C1179   1.440       .  S
C858        H859   1.082       .  S
C863        C865   1.531       .  S
C863        C867   1.547       .  S
C863       C1146   1.559       .  S
C864        C868   1.544       .  S
C864        C870   1.548       .  S
C864       C1156   1.557       .  S
C865       C1276   1.402       .  A
C866        C877   1.379       .  A
C866       C1277   1.401       .  A
C867        C881   1.379       .  A
C867       C1278   1.406       .  A
C868       C1273   1.403   1_554  A
C869       C1274   1.400   1_554  A
C869        C875   1.379       .  A
C870       C1275   1.403   1_554  A
C870        C878   1.378       .  A
C871        H884   1.081       .  S
C871        N872   1.358   1_554  A
N872       C1281   1.355       .  A
N872        C949   1.431       .  S
C873        H874   1.082       .  S
C873       N1280   1.355       .  A
C875        H885   1.082       .  S
C875        N876   1.360       .  A
N876       C1285   1.358   1_554  A
N876       C1189   1.441       .  S
C877        H883   1.080       .  S
C877       N1284   1.361       .  A
C878        H880   1.080       .  S
C878        N879   1.358   1_554  A
N879       C1289   1.359       .  A
N879       C1199   1.442       .  S
C881        H882   1.081       .  S
C881       N1287   1.357       .  A
C886        C888   1.543       .  S
C886        C890   1.549       .  S
C886       C1159   1.559       .  S
C887        C891   1.535       .  S
C887        C893   1.548       .  S
C887       C1149   1.559       .  S
C888        C891   1.403       .  A
C889        C900   1.374       .  A
C889        C892   1.403       .  A
C890        C904   1.381       .  A
C890        C893   1.403       .  A
C892        C898   1.378       .  A
C893        C901   1.381       .  A
C894        H907   1.083       .  S
C894        N895   1.356       .  A
N895        C896   1.354       .  A
N895        C962   1.426       .  S
C896        H897   1.081       .  S
C898        H908   1.081       .  S
C898        N899   1.358       .  A
N899        C900   1.358       .  A
N899       C1169   1.438       .  S
C900        H906   1.081       .  S
C901        H903   1.082       .  S
C901        N902   1.358       .  A
N902        C904   1.359       .  A
N902       C1176   1.444       .  S
C904        H905   1.079       .  S
O909        V917   1.907   1_554  S
O909        C919   1.264       .  A
O910       V1325   1.886       .  S
O910        C920   1.260       .  A
O911        V917   1.891       .  S
O911        C921   1.261   1_556  A
O912       V1325   1.904       .  S
O912       C1330   1.264       .  A
O913        V918   1.909       .  S
O913        C922   1.267       .  A
O914       V1326   1.907       .  S
O914       C1329   1.264       .  A
O915       V1326   1.905       .  S
O915        C920   1.263       .  A
O916        V918   1.887       .  S
O916        C919   1.260       .  A
V917       O1318   1.891       .  S
V917       O1320   1.892       .  S
V917        V918   2.091   1_556  T
V918       O1322   1.909       .  S
V918       O1323   1.895   1_554  S
C919       C1144   1.431       .  S
C920       C1142   1.429       .  S
C921        N974   1.426       .  S
C921       O1322   1.266       .  A
C922       N1234   1.427       .  S
C922       O1320   1.260   1_554  A
O923        V931   1.892       .  S
O923        C933   1.262       .  A
O924        V931   1.904       .  S
O924        C934   1.263       .  A
O925        V931   1.898       .  S
O925        C935   1.263       .  A
O926        V931   1.900       .  S
O926        C936   1.263       .  A
O927        V932   1.908       .  S
O927        C936   1.265       .  A
O928        V932   1.910       .  S
O928        C935   1.266       .  A
O929        V932   1.892       .  S
O929        C934   1.262       .  A
O930        V932   1.903       .  S
O930        C933   1.262       .  A
V931        V932   2.090       .  T
C933       C1141   1.430       .  S
C934       C1143   1.432       .  S
C935        N997   1.430       .  S
O937        V945   1.890       .  S
O938       V1353   1.880       .  S
O939        V945   1.901   1_655  S
O940       V1353   1.899       .  S
O941       V1354   1.898       .  S
O941       C1358   1.262       .  A
O942        V946   1.901   1_655  S
O942        C949   1.264       .  A
O943        V946   1.896   1_554  S
O943        C948   1.261       .  A
O944       V1354   1.884       .  S
O944        C947   1.261       .  A
V945       O1346   1.884       .  S
V945       O1348   1.899       .  S
V946       O1349   1.899       .  S
V946       O1352   1.886       .  S
C947       C1138   1.415       .  S
C948       C1140   1.421       .  S
C950       O1349   1.262       .  A
O951        V959   1.900       .  S
O951        C961   1.263       .  A
O952        V959   1.897   1_655  S
O952        C962   1.263       .  A
O953        V959   1.881       .  S
O953        C963   1.260       .  A
O954        V959   1.897       .  S
O954        C964   1.261       .  A
O955        V960   1.880       .  S
O956        V960   1.887       .  S
O957        V960   1.895   1_655  S
O958        V960   1.895       .  S
C963       C1137   1.414       .  S
C964       C1139   1.421       .  S
C965        C967   1.548       .  S
C965        C969   1.550       .  S
C965        C968   1.535       .  S
C965       C1118   1.563       .  S
C966        C970   1.546       .  S
C966        C972   1.547       .  S
C966        C971   1.537       .  S
C966       C1128   1.563       .  S
C967        C975   1.381       .  A
C967       C1378   1.405       .  A
C968        C979   1.376       .  A
C968       C1379   1.397       .  A
C969        C983   1.379       .  A
C969       C1380   1.409       .  A
C970       C1375   1.407   1_554  A
C970        C973   1.380       .  A
C971       C1376   1.398   1_554  A
C971        C977   1.375       .  A
C972       C1377   1.409   1_554  A
C972        C980   1.380       .  A
C973        H986   1.081       .  S
C973        N974   1.355       .  A
N974       C1383   1.354   1_554  A
C975        H976   1.082       .  S
C975       N1382   1.357       .  A
C977        H987   1.082       .  S
C977        N978   1.361   1_554  A
N978       C1387   1.359       .  A
N978       C1111   1.438       .  S
C979        H985   1.082       .  S
C979       N1386   1.362       .  A
C980        H982   1.082       .  S
C980        N981   1.357       .  A
N981       C1391   1.360   1_554  A
N981       C1098   1.445       .  S
C983        H984   1.080       .  S
C983       N1389   1.358       .  A
C988        C990   1.549       .  S
C988        C992   1.551       .  S
C988        C991   1.540       .  S
C988       C1131   1.563       .  S
C989        C993   1.545       .  S
C989        C995   1.552       .  S
C989        C994   1.536       .  S
C989       C1121   1.564       .  S
C990        C998   1.382       .  A
C990        C993   1.406       .  A
C991       C1002   1.379       .  A
C991        C994   1.396       .  A
C992       C1006   1.386       .  A
C992        C995   1.411       .  A
C993        C996   1.380       .  A
C994       C1000   1.377       .  A
C995       C1003   1.384       .  A
C996       H1009   1.082       .  S
C996        N997   1.356       .  A
N997        C998   1.357       .  A
C998        H999   1.081       .  S
C1000      H1010   1.082       .  S
C1000      N1001   1.361       .  A
N1001      C1002   1.363       .  A
N1001      C1088   1.445       .  S
C1002      H1008   1.082       .  S
C1003      H1005   1.079       .  S
C1003      N1004   1.359       .  A
N1004      C1006   1.357       .  A
N1004      C1078   1.451       .  S
C1006      H1007   1.082       .  S
C1011      C1013   1.547       .  S
C1011      C1015   1.542   1_545  S
C1011      C1068   1.558       .  S
C1012      C1016   1.550       .  S
C1012      C1018   1.540   1_545  S
C1012      C1058   1.563       .  S
C1013      C1021   1.379       .  A
C1013      C1424   1.407   1_554  A
C1014      C1025   1.379       .  A
C1014      C1425   1.403   1_554  A
C1015      C1029   1.377       .  A
C1015      C1426   1.400   1_554  A
C1016      C1421   1.409       .  A
C1016      C1019   1.380       .  A
C1017      C1422   1.401       .  A
C1017      C1023   1.377       .  A
C1018      C1423   1.400       .  A
C1018      C1026   1.377       .  A
C1019      H1032   1.080       .  S
C1019      N1428   1.354       .  A
N1020      C1427   1.355   1_554  A
N1020      C1021   1.354       .  A
C1021      H1022   1.082       .  S
C1023      H1033   1.080       .  S
C1023      N1432   1.359       .  A
N1024      C1431   1.361   1_554  A
N1024      C1025   1.360       .  A
N1024      C1101   1.445       .  S
C1025      H1031   1.083       .  S
C1026      H1028   1.082       .  S
C1026      N1435   1.362       .  A
N1027      C1434   1.358       .  A
N1027      C1029   1.358   1_556  A
N1027      C1108   1.436       .  S
C1029      H1030   1.081       .  S
C1034      C1036   1.549       .  S
C1034      C1038   1.539   1_545  S
C1034      C1061   1.561       .  S
C1035      C1039   1.545       .  S
C1035      C1041   1.547   1_545  S
C1035      C1071   1.559       .  S
C1036      C1044   1.382       .  A
C1036      C1039   1.406       .  A
C1037      C1048   1.381       .  A
C1037      C1040   1.400       .  A
C1038      C1052   1.377       .  A
C1038      C1041   1.402       .  A
C1039      C1042   1.379       .  A
C1040      C1046   1.381       .  A
C1041      C1049   1.381       .  A
C1042      H1055   1.081       .  S
C1042      N1043   1.352       .  A
N1043      C1044   1.356       .  A
C1044      H1045   1.082       .  S
C1046      H1056   1.082       .  S
C1046      N1047   1.362       .  A
N1047      C1048   1.362       .  A
N1047      C1081   1.449       .  S
C1048      H1054   1.081       .  S
C1049      H1051   1.080       .  S
C1049      N1050   1.361       .  A
N1050      C1052   1.359       .  A
N1050      C1091   1.443       .  S
C1052      H1053   1.083       .  S
C1057      C1062   1.412       .  A
C1057      H1063   1.080       .  S
C1058      C1059   1.413       .  A
C1059      C1060   1.413       .  A
C1059      H1064   1.080   1_545  S
C1060      C1061   1.413       .  A
C1060      H1065   1.080   1_545  S
C1062      H1066   1.079       .  S
C1067      C1068   1.413       .  A
C1067      C1072   1.413       .  A
C1067      H1073   1.080       .  S
C1069      C1070   1.407       .  A
C1069      H1074   1.080       .  S
C1070      H1075   1.080       .  S
C1071      C1072   1.411       .  A
C1072      H1076   1.080       .  S
C1077      C1078   1.407       .  A
C1077      C1082   1.399       .  A
C1077      H1083   1.081       .  S
C1078      C1079   1.410       .  A
C1079      C1080   1.405       .  A
C1079      H1084   1.082       .  S
C1080      C1081   1.408       .  A
C1080      H1085   1.082       .  S
C1081      C1082   1.407       .  A
C1082      H1086   1.082       .  S
C1087      C1088   1.406       .  A
C1087      C1092   1.400       .  A
C1087      H1093   1.082       .  S
C1088      C1089   1.407       .  A
C1089      C1090   1.400       .  A
C1089      H1094   1.082       .  S
C1090      C1091   1.405       .  A
C1090      H1095   1.082       .  S
C1091      C1092   1.406       .  A
C1092      H1096   1.083       .  S
C1097      C1098   1.408       .  A
C1097      C1102   1.401       .  A
C1097      H1103   1.082       .  S
C1098      C1099   1.405   1_554  A
C1099      C1100   1.398       .  A
C1099      H1104   1.082       .  S
C1100      C1101   1.406   1_556  A
C1100      H1105   1.082       .  S
C1101      C1102   1.405       .  A
C1102      H1106   1.083       .  S
C1107      C1108   1.403       .  A
C1107      C1112   1.396       .  A
C1107      H1113   1.082       .  S
C1108      C1109   1.404   1_556  A
C1109      C1110   1.395       .  A
C1109      H1522   1.082       .  S
C1110      C1111   1.404   1_554  A
C1110      H1523   1.082       .  S
C1111      C1112   1.406       .  A
C1112      H1116   1.082       .  S
H1114      C1517   1.081       .  S
H1115      C1518   1.081       .  S
C1117      C1118   1.413       .  A
C1117      C1122   1.412       .  A
C1117      H1123   1.080       .  S
C1118      C1119   1.413       .  A
C1119      C1120   1.416       .  A
C1119      H1124   1.082       .  S
C1120      C1121   1.413       .  A
C1120      H1125   1.082       .  S
C1121      C1122   1.413       .  A
C1122      H1126   1.080       .  S
C1127      C1128   1.414       .  A
C1127      C1132   1.417       .  A
C1127      H1133   1.081       .  S
C1128      C1129   1.411       .  A
C1129      C1130   1.411       .  A
C1129      H1134   1.082       .  S
C1130      C1131   1.413       .  A
C1130      H1135   1.081       .  S
C1131      C1132   1.413       .  A
C1132      H1136   1.081       .  S
C1137      C1138   1.193       .  T
C1139      C1140   1.197       .  T
C1141      C1142   1.202       .  T
C1143      C1144   1.204       .  T
C1145      C1146   1.412       .  A
C1145      C1150   1.410       .  A
C1145      H1151   1.081       .  S
C1147      C1148   1.412       .  A
C1147      H1152   1.080       .  S
C1148      H1153   1.078       .  S
C1149      C1150   1.412       .  A
C1150      H1154   1.080       .  S
C1155      C1160   1.412       .  A
C1155      H1161   1.080       .  S
C1156      C1157   1.412       .  A
C1157      C1158   1.408       .  A
C1157      H1162   1.078       .  S
C1158      C1159   1.410       .  A
C1158      H1163   1.079       .  S
C1160      H1164   1.080       .  S
C1165      C1166   1.404       .  A
C1165      C1170   1.395       .  A
C1165      H1171   1.082       .  S
C1166      C1167   1.405       .  A
C1167      C1168   1.397       .  A
C1167      H1172   1.082       .  S
C1168      C1169   1.404       .  A
C1168      H1173   1.083       .  S
C1169      C1170   1.405       .  A
C1170      H1174   1.082       .  S
C1175      C1176   1.406       .  A
C1175      C1180   1.396       .  A
C1175      H1181   1.082       .  S
C1176      C1177   1.408       .  A
C1177      C1178   1.400       .  A
C1177      H1182   1.081       .  S
C1178      C1179   1.404       .  A
C1178      H1183   1.083       .  S
C1179      C1180   1.405       .  A
C1180      H1184   1.082       .  S
C1185      C1186   1.408       .  A
C1185      C1190   1.402       .  A
C1185      H1191   1.082       .  S
C1186      C1595   1.403   1_554  A
C1187      C1594   1.404       .  A
C1187      C1188   1.395       .  A
C1187      H1192   1.082       .  S
C1188      C1597   1.403       .  A
C1188      H1193   1.083       .  S
C1189      C1596   1.405   1_554  A
C1189      C1190   1.407       .  A
C1190      H1194   1.083       .  S
C1195      C1604   1.407       .  A
C1195      C1608   1.401       .  A
C1195      H1201   1.082       .  S
C1196      C1603   1.409       .  A
C1196      C1197   1.406   1_556  A
C1197      C1198   1.395       .  A
C1197      H1202   1.081       .  S
C1198      C1199   1.404   1_554  A
C1198      H1203   1.082       .  S
C1199      C1200   1.406       .  A
C1200      C1603   1.402       .  A
C1200      H1612   1.082       .  S
H1204      C1608   1.082       .  S
C1205      C1206   1.412       .  A
C1205      C1210   1.412       .  A
C1205      H1211   1.080       .  S
C1206      C1207   1.412       .  A
C1207      C1208   1.412       .  A
C1207      H1212   1.079       .  S
C1208      C1209   1.412       .  A
C1208      H1213   1.079       .  S
C1209      C1210   1.412       .  A
C1210      H1214   1.081       .  S
C1215      C1216   1.412       .  A
C1215      C1220   1.413       .  A
C1215      H1221   1.080       .  S
C1216      C1217   1.412       .  A
C1217      C1218   1.410       .  A
C1217      H1222   1.080       .  S
C1218      C1219   1.411       .  A
C1218      H1223   1.079       .  S
C1219      C1220   1.413       .  A
C1220      H1224   1.081       .  S
C1225      C1227   1.545       .  S
C1225      C1229   1.535       .  S
C1225      C1228   1.546       .  S
C1225      C1614   1.561       .  S
C1226      C1230   1.545       .  S
C1226      C1232   1.548       .  S
C1226      C1231   1.537       .  S
C1226      C1624   1.558       .  S
C1227      C1235   1.380       .  A
C1228      C1239   1.375       .  A
C1229      C1243   1.376       .  A
C1230      C1233   1.380       .  A
C1231      C1237   1.380       .  A
C1232      C1240   1.380       .  A
C1233      H1246   1.082       .  S
N1234      C1235   1.355   1_554  A
C1235      H1236   1.082       .  S
C1237      H1247   1.082       .  S
C1237      N1238   1.359       .  A
N1238      C1594   1.441       .  S
C1239      H1245   1.080       .  S
C1240      H1242   1.080       .  S
C1240      N1241   1.360       .  A
N1241      C1604   1.445       .  S
C1243      H1244   1.081       .  S
C1248      C1250   1.540       .  S
C1248      C1252   1.543       .  S
C1248      C1251   1.529       .  S
C1248      C1627   1.557       .  S
C1249      C1253   1.549       .  S
C1249      C1255   1.540       .  S
C1249      C1254   1.553       .  S
C1249      C1617   1.563       .  S
C1250      C1258   1.376       .  A
C1250      C1253   1.407       .  A
C1251      C1262   1.372       .  A
C1251      C1254   1.401       .  A
C1252      C1266   1.375       .  A
C1252      C1255   1.403       .  A
C1253      C1256   1.381       .  A
C1254      C1260   1.383       .  A
C1255      C1263   1.378       .  A
C1256      H1269   1.082       .  S
C1256      N1257   1.355       .  A
N1257      C1258   1.353       .  A
N1257      C1344   1.424       .  S
C1258      H1259   1.081       .  S
C1260      H1270   1.079       .  S
C1260      N1261   1.363       .  A
N1261      C1262   1.356       .  A
N1261      C1574   1.442       .  S
C1262      H1268   1.083       .  S
C1263      H1265   1.083       .  S
C1263      N1264   1.360       .  A
N1264      C1266   1.359       .  A
N1264      C1587   1.440       .  S
C1266      H1267   1.080       .  S
C1271      C1273   1.539       .  S
C1271      C1275   1.547       .  S
C1271      C1554   1.557       .  S
C1272      C1276   1.547       .  S
C1272      C1278   1.553       .  S
C1272      C1564   1.565       .  S
C1274      C1285   1.374       .  A
C1275      C1289   1.383       .  A
C1277      C1283   1.377       .  A
C1278      C1286   1.383       .  A
C1279      H1292   1.082       .  S
C1279      N1280   1.354       .  A
N1280      C1357   1.425       .  S
C1281      H1282   1.083       .  S
C1283      H1293   1.083       .  S
C1283      N1284   1.358       .  A
N1284      C1597   1.440       .  S
C1285      H1291   1.081       .  S
C1286      H1288   1.081       .  S
C1286      N1287   1.361       .  A
N1287      C1607   1.443       .  S
C1289      H1290   1.081       .  S
C1294      C1296   1.549       .  S
C1294      C1298   1.547       .  S
C1294      C1567   1.566       .  S
C1295      C1299   1.538       .  S
C1295      C1301   1.543       .  S
C1295      C1557   1.560       .  S
C1296      C1299   1.406       .  A
C1297      C1308   1.377       .  A
C1297      C1300   1.402       .  A
C1298      C1312   1.377       .  A
C1298      C1301   1.402       .  A
C1300      C1306   1.378       .  A
C1301      C1309   1.379       .  A
C1302      H1315   1.083       .  S
C1302      N1303   1.356       .  A
N1303      C1304   1.354       .  A
N1303      C1370   1.427       .  S
C1304      H1305   1.081       .  S
C1306      H1316   1.079       .  S
C1306      N1307   1.361       .  A
N1307      C1308   1.359       .  A
N1307      C1577   1.442       .  S
C1308      H1314   1.083       .  S
C1309      H1311   1.081       .  S
C1309      N1310   1.359       .  A
N1310      C1312   1.359       .  A
N1310      C1584   1.443       .  S
C1312      H1313   1.079       .  S
O1317      V1325   1.900       .  S
O1317      C1327   1.261       .  A
O1318      C1328   1.262       .  A
O1319      V1325   1.902       .  S
O1319      C1329   1.264       .  A
O1321      V1326   1.905       .  S
O1321      C1330   1.264       .  A
O1323      C1328   1.259       .  A
O1324      V1326   1.891       .  S
O1324      C1327   1.262       .  A
V1325      V1326   2.091       .  T
C1327      C1552   1.427       .  S
C1328      C1550   1.423       .  S
C1329      N1382   1.430       .  S
O1331      V1339   1.886       .  S
O1331      C1341   1.261       .  A
O1332      V1339   1.903       .  S
O1332      C1342   1.262       .  A
O1333      V1339   1.895       .  S
O1333      C1343   1.262       .  A
O1334      V1339   1.896       .  S
O1334      C1344   1.262       .  A
O1335      V1340   1.901       .  S
O1335      C1344   1.264       .  A
O1336      V1340   1.905       .  S
O1336      C1343   1.264       .  A
O1337      V1340   1.884       .  S
O1337      C1342   1.260       .  A
O1338      V1340   1.897       .  S
O1338      C1341   1.261       .  A
V1339      V1340   2.092       .  T
C1341      C1549   1.422       .  S
C1342      C1551   1.426       .  S
C1343      N1405   1.426       .  S
O1345      V1353   1.888   1_556  S
O1347      V1353   1.902   1_655  S
O1350      V1354   1.898   1_655  S
O1350      C1357   1.263       .  A
O1351      V1354   1.901       .  S
O1351      C1356   1.262       .  A
O1352      C1355   1.261       .  A
C1355      C1546   1.422       .  S
C1356      C1548   1.421       .  S
O1359      V1367   1.902       .  S
O1359      C1369   1.265       .  A
O1360      V1367   1.905   1_655  S
O1360      C1370   1.265       .  A
O1361      V1367   1.881       .  S
O1361      C1371   1.259       .  A
O1362      V1367   1.895       .  S
O1362      C1372   1.260       .  A
O1363      V1368   1.874       .  S
O1364      V1368   1.879       .  S
O1365      V1368   1.903   1_655  S
O1366      V1368   1.900       .  S
C1371      C1545   1.421       .  S
C1372      C1547   1.423       .  S
C1373      C1375   1.544       .  S
C1373      C1377   1.548       .  S
C1373      C1376   1.532       .  S
C1373      C1526   1.560       .  S
C1374      C1378   1.544       .  S
C1374      C1380   1.543       .  S
C1374      C1379   1.534       .  S
C1374      C1536   1.556       .  S
C1375      C1383   1.378       .  A
C1376      C1387   1.373       .  A
C1377      C1391   1.381       .  A
C1378      C1381   1.381       .  A
C1379      C1385   1.373       .  A
C1380      C1388   1.378       .  A
C1381      H1394   1.081       .  S
C1381      N1382   1.355       .  A
C1383      H1384   1.082       .  S
C1385      H1395   1.082       .  S
C1385      N1386   1.362       .  A
N1386      C1519   1.444       .  S
C1387      H1393   1.083       .  S
C1388      H1390   1.082       .  S
C1388      N1389   1.356       .  A
N1389      C1506   1.442       .  S
C1391      H1392   1.080       .  S
C1396      C1398   1.544       .  S
C1396      C1400   1.539       .  S
C1396      C1399   1.533       .  S
C1396      C1539   1.556       .  S
C1397      C1401   1.549       .  S
C1397      C1403   1.547       .  S
C1397      C1402   1.534       .  S
C1397      C1529   1.560       .  S
C1398      C1406   1.380       .  A
C1398      C1401   1.408       .  A
C1399      C1410   1.373       .  A
C1399      C1402   1.398       .  A
C1400      C1414   1.373       .  A
C1400      C1403   1.402       .  A
C1401      C1404   1.380       .  A
C1402      C1408   1.373       .  A
C1403      C1411   1.378       .  A
C1404      H1417   1.082       .  S
C1404      N1405   1.354       .  A
N1405      C1406   1.354       .  A
C1406      H1407   1.082       .  S
C1408      H1418   1.083       .  S
C1408      N1409   1.360       .  A
N1409      C1410   1.359       .  A
N1409      C1496   1.436       .  S
C1410      H1416   1.082       .  S
C1411      H1413   1.080       .  S
C1411      N1412   1.362       .  A
N1412      C1414   1.358       .  A
N1412      C1486   1.443       .  S
C1414      H1415   1.080       .  S
C1419      C1421   1.544       .  S
C1419      C1423   1.540   1_545  S
C1419      C1476   1.558       .  S
C1420      C1424   1.548       .  S
C1420      C1426   1.534   1_545  S
C1420      C1466   1.560       .  S
C1421      C1429   1.378       .  A
C1422      C1433   1.374       .  A
C1423      C1437   1.373       .  A
C1424      C1427   1.381       .  A
C1425      C1431   1.381       .  A
C1426      C1434   1.373       .  A
C1427      H1440   1.081       .  S
N1428      C1429   1.353       .  A
C1429      H1430   1.082       .  S
C1431      H1441   1.080       .  S
N1432      C1433   1.358       .  A
N1432      C1509   1.440       .  S
C1433      H1439   1.082       .  S
C1434      H1436   1.083       .  S
N1435      C1437   1.360       .  A
N1435      C1516   1.443       .  S
C1437      H1438   1.081       .  S
C1442      C1444   1.549       .  S
C1442      C1446   1.536   1_545  S
C1442      C1469   1.562       .  S
C1443      C1447   1.542       .  S
C1443      C1449   1.543   1_545  S
C1443      C1479   1.561       .  S
C1444      C1452   1.382       .  A
C1444      C1447   1.406       .  A
C1445      C1456   1.371       .  A
C1445      C1448   1.401       .  A
C1446      C1460   1.374       .  A
C1446      C1449   1.403       .  A
C1447      C1450   1.377       .  A
C1448      C1454   1.375       .  A
C1449      C1457   1.377       .  A
C1450      H1463   1.082       .  S
C1450      N1451   1.351       .  A
N1451      C1452   1.356       .  A
C1452      H1453   1.081       .  S
C1454      H1464   1.083       .  S
C1454      N1455   1.362       .  A
N1455      C1456   1.359       .  A
N1455      C1489   1.441       .  S
C1456      H1462   1.079       .  S
C1457      H1459   1.082       .  S
C1457      N1458   1.357       .  A
N1458      C1460   1.359       .  A
N1458      C1499   1.436       .  S
C1460      H1461   1.082       .  S
C1465      C1470   1.413       .  A
C1465      H1471   1.078       .  S
C1466      C1467   1.411       .  A
C1467      C1468   1.411       .  A
C1467      H1472   1.081   1_545  S
C1468      C1469   1.412       .  A
C1468      H1473   1.079   1_545  S
C1470      H1474   1.081       .  S
C1475      C1476   1.412       .  A
C1475      C1480   1.412       .  A
C1475      H1481   1.081   1_545  S
C1477      C1478   1.413       .  A
C1477      H1482   1.080       .  S
C1478      H1483   1.082       .  S
C1479      C1480   1.411       .  A
C1480      H1484   1.080       .  S
C1485      C1486   1.404       .  A
C1485      C1490   1.394       .  A
C1485      H1491   1.080       .  S
C1486      C1487   1.409       .  A
C1487      C1488   1.396       .  A
C1487      H1492   1.082       .  S
C1488      C1489   1.403       .  A
C1488      H1493   1.081       .  S
C1489      C1490   1.407       .  A
C1490      H1494   1.082       .  S
C1495      C1496   1.404       .  A
C1495      C1500   1.396       .  A
C1495      H1501   1.083       .  S
C1496      C1497   1.404       .  A
C1497      C1498   1.396       .  A
C1497      H1502   1.082       .  S
C1498      C1499   1.403       .  A
C1498      H1503   1.083       .  S
C1499      C1500   1.405       .  A
C1500      H1504   1.082       .  S
C1505      C1506   1.407       .  A
C1505      C1510   1.398       .  A
C1505      H1511   1.082       .  S
C1506      C1507   1.405       .  A
C1507      C1508   1.394       .  A
C1507      H1512   1.081       .  S
C1508      C1509   1.405       .  A
C1508      H1513   1.082       .  S
C1509      C1510   1.405       .  A
C1510      H1514   1.082       .  S
C1515      C1516   1.406       .  A
C1515      C1520   1.400       .  A
C1515      H1521   1.082       .  S
C1516      C1517   1.406       .  A
C1517      C1518   1.394       .  A
C1518      C1519   1.405       .  A
C1519      C1520   1.408       .  A
C1520      H1524   1.081       .  S
C1525      C1526   1.413       .  A
C1525      C1530   1.414       .  A
C1525      H1531   1.081       .  S
C1526      C1527   1.412       .  A
C1527      C1528   1.412       .  A
C1527      H1532   1.081       .  S
C1528      C1529   1.412       .  A
C1528      H1533   1.080       .  S
C1529      C1530   1.413       .  A
C1530      H1534   1.081       .  S
C1535      C1536   1.412       .  A
C1535      C1540   1.411       .  A
C1535      H1541   1.081       .  S
C1536      C1537   1.411       .  A
C1537      C1538   1.410       .  A
C1537      H1542   1.081       .  S
C1538      C1539   1.413       .  A
C1538      H1543   1.081       .  S
C1539      C1540   1.411       .  A
C1540      H1544   1.081       .  S
C1545      C1546   1.198       .  T
C1547      C1548   1.198       .  T
C1549      C1550   1.198       .  T
C1551      C1552   1.201       .  T
C1553      C1554   1.412       .  A
C1553      C1558   1.410       .  A
C1553      H1559   1.081       .  S
C1555      C1556   1.413       .  A
C1555      H1560   1.079       .  S
C1556      H1561   1.078       .  S
C1557      C1558   1.412       .  A
C1558      H1562   1.081       .  S
C1563      C1568   1.409       .  A
C1563      H1569   1.080       .  S
C1564      C1565   1.412       .  A
C1565      C1566   1.414       .  A
C1565      H1570   1.079       .  S
C1566      C1567   1.415       .  A
C1566      H1571   1.080       .  S
C1568      H1572   1.080       .  S
C1573      C1574   1.404       .  A
C1573      C1578   1.395       .  A
C1573      H1579   1.082       .  S
C1574      C1575   1.408       .  A
C1575      C1576   1.400       .  A
C1575      H1580   1.082       .  S
C1576      C1577   1.406       .  A
C1576      H1581   1.082       .  S
C1577      C1578   1.405       .  A
C1578      H1582   1.082       .  S
C1583      C1584   1.405       .  A
C1583      C1588   1.393       .  A
C1583      H1589   1.081       .  S
C1584      C1585   1.409       .  A
C1585      C1586   1.401       .  A
C1585      H1590   1.081       .  S
C1586      C1587   1.405       .  A
C1586      H1591   1.082       .  S
C1587      C1588   1.404       .  A
C1588      H1592   1.082       .  S
C1593      C1594   1.406       .  A
C1593      C1598   1.404       .  A
C1593      H1599   1.083       .  S
C1595      C1596   1.390       .  A
C1595      H1600   1.082       .  S
C1596      H1601   1.081       .  S
C1597      C1598   1.407       .  A
C1598      H1602   1.083       .  S
C1603      H1609   1.082       .  S
C1604      C1605   1.407       .  A
C1605      C1606   1.397       .  A
C1605      H1610   1.081       .  S
C1606      C1607   1.403       .  A
C1606      H1611   1.083       .  S
C1607      C1608   1.407       .  A
C1613      C1614   1.413       .  A
C1613      C1618   1.414       .  A
C1613      H1619   1.081       .  S
C1614      C1615   1.412       .  A
C1615      C1616   1.412       .  A
C1615      H1620   1.079       .  S
C1616      C1617   1.412       .  A
C1616      H1621   1.079       .  S
C1617      C1618   1.413       .  A
C1618      H1622   1.081       .  S
C1623      C1624   1.412       .  A
C1623      C1628   1.410       .  A
C1623      H1629   1.078       .  S
C1624      C1625   1.411       .  A
C1625      C1626   1.412       .  A
C1625      H1630   1.082       .  S
C1626      C1627   1.413       .  A
C1626      H1631   1.081       .  S
C1627      C1628   1.411       .  A
C1628      H1632   1.080       .  S
