geometry optimzed in LAMMPS
_audit_creation_date              2020-11-30 
_audit_creation_method            'lammps2cif' 
_symmetry_space_group_name_H-M    'P1' 
_symmetry_Int_Tables_number       1 
_symmetry_cell_setting            triclinic 
loop_ 
_symmetry_equiv_pos_as_xyz 
  x,y,z 
_cell_length_a                    41.41868651 
_cell_length_b                    30.843227731149906 
_cell_length_c                    36.73555289268938 
_cell_angle_alpha                 89.24673997881273 
_cell_angle_beta                  104.39731053440252 
_cell_angle_gamma                 90.8998176962583 
loop_ 
_atom_site_label 
_atom_site_type_symbol 
_atom_site_fract_x 
_atom_site_fract_y 
_atom_site_fract_z 
_atom_site_charge 
N1          N  0.47532385  0.02836895  0.94869287    -0.36700
N2          N  0.48603170  0.05485992  0.02541008    -0.57200
N3          N  0.02532584  0.97709981  0.04996821    -0.36700
N4          N  0.01209326  0.94861132  0.97338149    -0.57200
C5          C  0.45212723  0.05960598  0.94519082     0.26900
C6          C  0.46665430  0.00389520  0.91748462     0.26900
C7          C  0.02001734  0.99137859  0.08261507     0.26900
C8          C  0.03356160  0.93471331  0.05497814     0.26900
C9          C  0.47309572  0.09181682  0.00798274     0.35500
C10         C  0.50041781  0.06534354  0.06139447     0.35500
C11         C  0.00983780  0.94745021  0.93610678     0.35500
C12         C  0.03584306  0.91998330  0.98971619     0.35500
C13         C  0.42835470  0.05471821  0.91142701    -0.22000
C14         C  0.43762191  0.01961895  0.89383703    -0.22000
C15         C  0.02500040  0.95777604  0.10878001    -0.22000
C16         C  0.03318592  0.92188206  0.09120981    -0.22000
C17         C  0.47949841  0.12602290  0.03295561    -0.23000
C18         C  0.49662445  0.10916232  0.06692151    -0.23000
C19         C  0.03233141  0.91817688  0.92862420    -0.23000
C20         C  0.04901107  0.90096638  0.96266288    -0.23000
C21         C  0.45326941  0.09388269  0.97069480    -0.18400
C22         C  0.48575132  0.96991210  0.90868589    -0.18400
C23         C  0.04349715  0.90852810  0.02831464    -0.18400
C24         C  0.01349365  0.03480826  0.09000151    -0.18400
H25         H  0.40675827  0.07460604  0.90039722     0.14500
H26         H  0.42462452  0.00730119  0.86658920     0.14500
H27         H  0.02322535  0.95898576  0.13763845     0.14500
H28         H  0.03865833  0.89013025  0.10391618     0.14500
H29         H  0.47211624  0.15945465  0.02751587     0.12800
H30         H  0.50468268  0.12696789  0.09286107     0.12800
H31         H  0.03607651  0.90979281  0.90146303     0.12800
H32         H  0.06832827  0.87686998  0.96686787     0.12800
H33         H  0.49791884  0.02690683  0.96888585     0.26100
H34         H  0.02715840  0.99660379  0.02721221     0.26100
N35         N  0.29154433  0.41087105  0.94679762    -0.27400
N36         N  0.27724634  0.43865387  0.92010795    -0.35200
C37         C  0.26090650  0.46835926  0.93509868     0.01000
C38         C  0.26531979  0.45875622  0.97303687     0.07000
C39         C  0.28492490  0.42229591  0.97934272    -0.06100
H40         H  0.24709480  0.49499752  0.91951369     0.07700
H41         H  0.29355145  0.40500973  0.00571579     0.08900
Cu42       Cu  0.28100443  0.43506510  0.86457321     0.44200
Cu43       Cu  0.31889314  0.35767777  0.93864028     0.42000
Cu44       Cu  0.32787046  0.34401034  0.84469368     0.43900
N45         N  0.28897406  0.42323864  0.81167589    -0.34700
N46         N  0.30588866  0.38968976  0.80469711    -0.29000
C47         C  0.30589928  0.39008537  0.76812018    -0.05100
C48         C  0.28811458  0.42566079  0.75087004     0.07100
C49         C  0.27786901  0.44602665  0.77955735     0.00900
H50         H  0.31806905  0.36603721  0.75521154     0.08600
H51         H  0.26282977  0.47475590  0.77722267     0.07600
N52         N  0.34802560  0.30197706  0.88864363    -0.36200
N53         N  0.34447461  0.30662501  0.92312263    -0.28400
C54         C  0.36002286  0.27394469  0.94482892    -0.03600
C55         C  0.37425159  0.24749580  0.92297214     0.05000
C56         C  0.36610435  0.26643490  0.88749190     0.03100
H57         H  0.36121681  0.27016151  0.97444622     0.08200
H58         H  0.37246959  0.25505643  0.86246760     0.07000
N59         N  0.19053919  0.58076669  0.05061896    -0.27400
N60         N  0.21059033  0.55816419  0.07765037    -0.35200
C61         C  0.22759938  0.53008467  0.06194458     0.01000
C62         C  0.21784714  0.53536394  0.02317261     0.07000
C63         C  0.19432271  0.56769899  0.01712887    -0.06100
H64         H  0.24609310  0.50811353  0.07778762     0.07700
H65         H  0.18140785  0.58146252  0.99031314     0.08900
Cu66       Cu  0.21499575  0.56721987  0.13496454     0.44200
Cu67       Cu  0.16085338  0.63106822  0.05987741     0.42000
Cu68       Cu  0.17122251  0.66048511  0.15640668     0.43900
N69         N  0.21232807  0.58267349  0.18934934    -0.34700
N70         N  0.19577344  0.61644421  0.19666117    -0.29000
C71         C  0.19648123  0.61628500  0.23343678    -0.05100
C72         C  0.21450091  0.58085107  0.25044557     0.07100
C73         C  0.22435649  0.56037100  0.22159339     0.00900
H74         H  0.18445607  0.64016134  0.24671313     0.08600
H75         H  0.23819105  0.53060480  0.22360741     0.07600
N76         N  0.14517516  0.69791706  0.11162383    -0.36200
N77         N  0.13990528  0.68601424  0.07617750    -0.28400
C78         C  0.12155822  0.71637654  0.05400655    -0.03600
C79         C  0.11536331  0.74928554  0.07658224     0.05000
C80         C  0.13079696  0.73649270  0.11294648     0.03100
H81         H  0.11419083  0.71523566  0.02363535     0.08200
H82         H  0.13129681  0.75375057  0.13853391     0.07000
N83         N  0.22373170  0.47551551  0.45048380    -0.36700
N84         N  0.23559958  0.45034491  0.52896096    -0.57200
N85         N  0.27228393  0.53135675  0.54991678    -0.36700
N86         N  0.26327693  0.55427569  0.47127047    -0.57200
C87         C  0.21424518  0.43320495  0.44761274     0.26900
C88         C  0.22938926  0.48790215  0.41706952     0.26900
C89         C  0.28036218  0.50909575  0.58285537     0.26900
C90         C  0.29479046  0.56415573  0.55231955     0.26900
C91         C  0.21163721  0.42093365  0.51367865     0.35500
C92         C  0.23783399  0.45020642  0.56632368     0.35500
C93         C  0.25060436  0.56251440  0.43428068     0.35500
C94         C  0.27624482  0.59216009  0.48687218     0.35500
C95         C  0.21417168  0.41853172  0.41204819    -0.22000
C96         C  0.22337490  0.45313281  0.39267753    -0.22000
C97         C  0.30840842  0.52785509  0.60639809    -0.22000
C98         C  0.31748127  0.56265184  0.58714477    -0.22000
C99         C  0.19843724  0.40232016  0.54146865    -0.23000
C100        C  0.21517380  0.42068090  0.57483543    -0.23000
C101        C  0.25579265  0.60573310  0.42628453    -0.23000
C102        C  0.27184198  0.62458974  0.45966168    -0.23000
C103        C  0.20350038  0.40856680  0.47542919    -0.18400
C104        C  0.23721932  0.53061468  0.40726519    -0.18400
C105        C  0.29403337  0.59695321  0.52480642    -0.18400
C106        C  0.26164588  0.47425191  0.59304546    -0.18400
H107        H  0.20774777  0.38635630  0.40093092     0.14500
H108        H  0.22510497  0.45270619  0.36378234     0.14500
H109        H  0.32085465  0.51783484  0.63468803     0.14500
H110        H  0.33828079  0.58455463  0.59771789     0.14500
H111        H  0.17895633  0.37784054  0.53818176     0.12800
H112        H  0.21117027  0.41307060  0.60223529     0.12800
H113        H  0.24921302  0.62190053  0.39917811     0.12800
H114        H  0.27975860  0.65819483  0.46330156     0.12800
H115        H  0.22241819  0.49606530  0.47226353     0.26100
H116        H  0.25042183  0.52757673  0.52892132     0.26100
N117        N  0.05475323  0.07177418  0.44261256    -0.27400
N118        N  0.03737988  0.05099259  0.41267780    -0.35200
C119        C  0.01989589  0.01844955  0.42352390     0.01000
C120        C  0.02628402  0.01849696  0.46215806     0.07000
C121        C  0.04857001  0.05279464  0.47351786    -0.06100
H122        H  0.00339162  0.99656222  0.40452204     0.07700
H123        H  0.05922391  0.06355207  0.50192634     0.08900
Cu124      Cu  0.03687243  0.06737843  0.35801027     0.44200
Cu125      Cu  0.08454954  0.12630414  0.43891295     0.42000
Cu126      Cu  0.08432532  0.15971361  0.34236498     0.43900
N127        N  0.04084249  0.08624438  0.30530348    -0.34700
N128        N  0.05944276  0.11944086  0.29937268    -0.29000
C129        C  0.05878009  0.12142655  0.26258108    -0.05100
C130        C  0.03843699  0.08802100  0.24453116     0.07100
C131        C  0.02744829  0.06650908  0.27255964     0.00900
H132        H  0.07211673  0.14538045  0.24999041     0.08600
H133        H  0.01190317  0.03762036  0.26970097     0.07600
N134        N  0.10528278  0.19596510  0.38979314    -0.36200
N135        N  0.10682200  0.18339470  0.42478381    -0.28400
C136        C  0.12274831  0.21446833  0.44829836    -0.03600
C137        C  0.13100004  0.24839828  0.42703072     0.05000
C138        C  0.11946871  0.23552766  0.39012361     0.03100
H139        H  0.12720012  0.21300081  0.47857965     0.08200
H140        H  0.12159503  0.25339387  0.36526303     0.07000
N141        N  0.47085934  0.90861010  0.56332007    -0.27400
N142        N  0.48460286  0.93267619  0.59273507    -0.35200
C143        C  0.50328022  0.96423933  0.58245359     0.01000
C144        C  0.50114775  0.96033425  0.54460089     0.07000
C145        C  0.48038303  0.92456950  0.53322093    -0.06100
H146        H  0.51668706  0.98903285  0.60103150     0.07700
H147        H  0.47236279  0.91143667  0.50521982     0.08900
Cu148      Cu  0.47524766  0.92442525  0.64475612     0.44200
Cu149      Cu  0.43865688  0.85676263  0.56656245     0.42000
Cu150      Cu  0.41535953  0.84437135  0.65691590     0.43900
N151        N  0.46115578  0.91558177  0.69416408    -0.34700
N152        N  0.43926693  0.88597779  0.69915613    -0.29000
C153        C  0.43669780  0.88767893  0.73489261    -0.05100
C154        C  0.45796967  0.92017943  0.75309289     0.07100
C155        C  0.47294208  0.93718297  0.72625989     0.00900
H156        H  0.42068871  0.86664181  0.74667463     0.08600
H157        H  0.49180716  0.96249965  0.72992105     0.07600
N158        N  0.39712138  0.80589134  0.61034082    -0.36200
N159        N  0.40585067  0.80952963  0.57812724    -0.28400
C160        C  0.39021967  0.77809769  0.55493316    -0.03600
C161        C  0.37059686  0.75369081  0.57332817     0.05000
C162        C  0.37562641  0.77241432  0.60835900     0.03100
H163        H  0.39301620  0.77342218  0.52675536     0.08200
H164        H  0.36523222  0.76179246  0.63127752     0.07000
C165        C  0.51706513  0.99016513  0.52225731    -0.16500
C166        C  0.01114838  0.98804406  0.48476744    -0.31700
H167        H  0.53369134  0.01515314  0.53727360     0.12500
H168        H  0.99427561  0.96329053  0.46975350     0.13100
C169        C  0.30563280  0.66387202  0.56411914    -0.13400
C170        C  0.31317426  0.63787259  0.53635782     0.08700
C171        C  0.33908734  0.65074353  0.52001058    -0.13400
C172        C  0.35724825  0.68894106  0.53135443    -0.13400
C173        C  0.35014744  0.71460203  0.55966974     0.08700
C174        C  0.32400845  0.70178155  0.57577112    -0.13400
H175        H  0.28560401  0.65459790  0.57690644     0.12700
H176        H  0.34538947  0.63097970  0.49867881     0.12700
H177        H  0.37739683  0.69771901  0.51864190     0.12700
H178        H  0.31767914  0.72106195  0.59735082     0.12700
C179        C  0.13847810  0.32866650  0.42140124    -0.13400
C180        C  0.14854857  0.28949634  0.44045520     0.08700
C181        C  0.17612165  0.28968497  0.47166934    -0.13400
C182        C  0.19401093  0.32815758  0.48291092    -0.13400
C183        C  0.18392684  0.36753730  0.46403404     0.08700
C184        C  0.15561178  0.36741361  0.43349076    -0.13400
H185        H  0.11715021  0.32933768  0.39735380     0.12700
H186        H  0.18449464  0.25979028  0.48658171     0.12700
H187        H  0.21596823  0.32712636  0.50618466     0.12700
H188        H  0.14710874  0.39728786  0.41860537     0.12700
C189        C  0.24851444  0.54303310  0.30809084    -0.13400
C190        C  0.22028273  0.56711609  0.29041388     0.08700
C191        C  0.19755554  0.57844266  0.31138239    -0.13400
C192        C  0.20290520  0.56599181  0.34912819    -0.13400
C193        C  0.23128574  0.54248229  0.36680107     0.08700
C194        C  0.25412871  0.53117293  0.34610256    -0.13400
H195        H  0.26654161  0.53407808  0.29273632     0.12700
H196        H  0.17540418  0.59657817  0.29852099     0.12700
H197        H  0.18505090  0.57499287  0.36472299     0.12700
H198        H  0.27625187  0.51317899  0.35942362     0.12700
C199        C  0.25265105  0.48130968  0.00188780    -0.16500
C200        C  0.23029039  0.51333977  0.99380383    -0.31700
H201        H  0.26178179  0.47033685  0.03075192     0.12500
H202        H  0.22055833  0.52370427  0.96484114     0.13100
C203        C  0.28606998  0.40857970  0.68358694    -0.13400
C204        C  0.28102163  0.43819961  0.71042655     0.08700
C205        C  0.26918743  0.47975062  0.69816612    -0.13400
C206        C  0.26275772  0.49139434  0.66008763    -0.13400
C207        C  0.26795687  0.46173584  0.63350049     0.08700
C208        C  0.27963005  0.42024512  0.64558182    -0.13400
H209        H  0.29481490  0.37618095  0.69175900     0.12700
H210        H  0.26518884  0.50349442  0.71796158     0.12700
H211        H  0.25376621  0.52360391  0.65129906     0.12700
H212        H  0.28388993  0.39693430  0.62552588     0.12700
C213        C  0.99599191  0.04014481  0.15012318    -0.13400
C214        C  0.01968241  0.04879097  0.12952335     0.08700
C215        C  0.04903150  0.07159418  0.14628561    -0.13400
C216        C  0.05481929  0.08530048  0.18347948    -0.13400
C217        C  0.03151241  0.07581989  0.20455510     0.08700
C218        C  0.00197825  0.05325544  0.18748940    -0.13400
H219        H  0.47296411  0.02314352  0.13725153     0.15900
H220        H  0.06740314  0.07870622  0.13051755     0.12700
H221        H  0.07786054  0.10237560  0.19598739     0.12700
H222        H  0.48336362  0.04604670  0.20292378     0.12700
C223        C  0.46550198  0.91563824  0.85787889    -0.13400
C224        C  0.47934985  0.95658437  0.86896652     0.08700
C225        C  0.48588489  0.98563477  0.84196556    -0.13400
C226        C  0.47876463  0.97383679  0.80425936    -0.13400
C227        C  0.46480357  0.93284764  0.79293402     0.08700
C228        C  0.45815629  0.90388751  0.82009340    -0.13400
H229        H  0.46014065  0.89301331  0.87846943     0.12700
H230        H  0.99683519  0.01710521  0.85029932     0.12700
H231        H  0.48386497  0.99703853  0.78398280     0.12700
H232        H  0.44769780  0.87197604  0.81228163     0.12700
C233        C  0.08985660  0.86711522  0.07187611    -0.13400
C234        C  0.06177909  0.86732763  0.04107407     0.08700
C235        C  0.05138364  0.82810840  0.02231691    -0.13400
C236        C  0.06916341  0.78995927  0.03340133    -0.13400
C237        C  0.09691168  0.78979320  0.06444326     0.08700
C238        C  0.10688913  0.82861304  0.08382605    -0.13400
H239        H  0.09865467  0.89685134  0.08665258     0.12700
H240        H  0.02954220  0.82706895  0.99888696     0.12700
H241        H  0.06077770  0.76035120  0.01821675     0.12700
H242        H  0.12836076  0.82939383  0.10769927     0.12700
C243        C  0.43523747  0.15624523  0.92589543    -0.13400
C244        C  0.43244537  0.13289472  0.95806315     0.08700
C245        C  0.40995807  0.14704292  0.97826761    -0.13400
C246        C  0.39121168  0.18437977  0.96703482    -0.13400
C247        C  0.39404688  0.20783876  0.93488959     0.08700
C248        C  0.41605528  0.19312551  0.91425469    -0.13400
H249        H  0.45250486  0.14605816  0.90995481     0.12700
H250        H  0.40706768  0.12924384  0.00289888     0.12700
H251        H  0.37419427  0.19450478  0.98327525     0.12700
H252        H  0.41902796  0.21058883  0.88952955     0.12700
N253        N  0.97529769  0.02823950  0.94870102    -0.36700
N254        N  0.98601798  0.05475984  0.02541936    -0.57200
N255        N  0.52530268  0.97717765  0.04994101    -0.36700
N256        N  0.51211435  0.94873634  0.97335598    -0.57200
C257        C  0.95213500  0.05952611  0.94517020     0.26900
C258        C  0.96664686  0.00379298  0.91747474     0.26900
C259        C  0.51995386  0.99142964  0.08257662     0.26900
C260        C  0.53351565  0.93478164  0.05493054     0.26900
C261        C  0.97308259  0.09171412  0.00798295     0.35500
C262        C  0.00041754  0.06526292  0.06139699     0.35500
C263        C  0.50989734  0.94763264  0.93608772     0.35500
C264        C  0.53588222  0.92013222  0.98969218     0.35500
C265        C  0.92840698  0.05470277  0.91136409    -0.22000
C266        C  0.93766685  0.01959315  0.89377979    -0.22000
C267        C  0.52487350  0.95779496  0.10870952    -0.22000
C268        C  0.53307261  0.92191176  0.09113283    -0.22000
C269        C  0.97949119  0.12592934  0.03294515    -0.23000
C270        C  0.99662299  0.10908407  0.06691083    -0.23000
C271        C  0.53244046  0.91842890  0.92861126    -0.23000
C272        C  0.54910529  0.90119455  0.96264773    -0.23000
C273        C  0.95327320  0.09379152  0.97068663    -0.18400
C274        C  0.98571536  0.96976155  0.90870320    -0.18400
C275        C  0.54350332  0.90863190  0.02828036    -0.18400
C276        C  0.51346315  0.03486329  0.08998844    -0.18400
H277        H  0.90684638  0.07464144  0.90030122     0.14500
H278        H  0.92469950  0.00731787  0.86650508     0.14500
H279        H  0.52305528  0.95898059  0.13755374     0.14500
H280        H  0.53851740  0.89014452  0.10381715     0.14500
H281        H  0.97211798  0.15936281  0.02749570     0.12800
H282        H  0.00469171  0.12690687  0.09283962     0.12800
H283        H  0.53622512  0.91010134  0.90145528     0.12800
H284        H  0.56844998  0.87713595  0.96685657     0.12800
H285        H  0.99786627  0.02672650  0.96892813     0.26100
H286        H  0.52718610  0.99670539  0.02721493     0.26100
N287        N  0.79154230  0.41084137  0.94672282    -0.27400
N288        N  0.77725959  0.43862939  0.92002945    -0.35200
C289        C  0.76095255  0.46837468  0.93502100     0.01000
C290        C  0.76537327  0.45879621  0.97296456     0.07000
C291        C  0.78495012  0.42230848  0.97927231    -0.06100
H292        H  0.74716125  0.49502683  0.91943442     0.07700
H293        H  0.79357198  0.40502924  0.00564959     0.08900
Cu294      Cu  0.78102199  0.43501749  0.86449588     0.44200
Cu295      Cu  0.81884194  0.35758787  0.93856637     0.42000
Cu296      Cu  0.82798391  0.34402487  0.84467853     0.43900
N297        N  0.78908844  0.42324818  0.81163174    -0.34700
N298        N  0.80604612  0.38973066  0.80467564    -0.29000
C299        C  0.80610958  0.39015732  0.76811235    -0.05100
C300        C  0.78831199  0.42571721  0.75084730     0.07100
C301        C  0.77800738  0.44604456  0.77951311     0.00900
H302        H  0.81830933  0.36612883  0.75521841     0.08600
H303        H  0.76293368  0.47474401  0.77715956     0.07600
N304        N  0.84810866  0.30196607  0.88862832    -0.36200
N305        N  0.84448454  0.30656535  0.92308315    -0.28400
C306        C  0.86002989  0.27388666  0.94479642    -0.03600
C307        C  0.87433614  0.24749018  0.92297229     0.05000
C308        C  0.86623493  0.26646002  0.88750175     0.03100
H309        H  0.86117021  0.27007024  0.97439856     0.08200
H310        H  0.87266016  0.25512259  0.86249881     0.07000
N311        N  0.69060081  0.58083314  0.05055444    -0.27400
N312        N  0.71064029  0.55821189  0.07758281    -0.35200
C313        C  0.72764247  0.53012632  0.06187289     0.01000
C314        C  0.71789985  0.53541846  0.02310129     0.07000
C315        C  0.69438576  0.56776835  0.01706282    -0.06100
H316        H  0.74611916  0.50813259  0.07771347     0.07700
H317        H  0.68147621  0.58154041  0.99024865     0.08900
Cu318      Cu  0.71502021  0.56721687  0.13490207     0.44200
Cu319      Cu  0.66091654  0.63114771  0.05981575     0.42000
Cu320      Cu  0.67113732  0.66042329  0.15632746     0.43900
N321        N  0.71224838  0.58259387  0.18927137    -0.34700
N322        N  0.69563722  0.61631766  0.19656946    -0.29000
C323        C  0.69629656  0.61611323  0.23333397    -0.05100
C324        C  0.71434831  0.58070733  0.25035229     0.07100
C325        C  0.72426889  0.56028463  0.22151543     0.00900
H326        H  0.68423710  0.63995771  0.24660325     0.08600
H327        H  0.73815590  0.53056040  0.22354195     0.07600
N328        N  0.64520661  0.69798434  0.11155580    -0.36200
N329        N  0.63998274  0.68612311  0.07610381    -0.28400
C330        C  0.62169066  0.71653161  0.05393210    -0.03600
C331        C  0.61548357  0.74943243  0.07651142     0.05000
C332        C  0.63085601  0.73658246  0.11288136     0.03100
H333        H  0.61435563  0.71541699  0.02355910     0.08200
H334        H  0.63131421  0.75380480  0.13847489     0.07000
N335        N  0.72365596  0.47549537  0.45046158    -0.36700
N336        N  0.73559986  0.45033577  0.52893506    -0.57200
N337        N  0.77228908  0.53137713  0.54983727    -0.36700
N338        N  0.76319483  0.55429785  0.47119489    -0.57200
C339        C  0.71417893  0.43317825  0.44760924     0.26900
C340        C  0.72931368  0.48786360  0.41704213     0.26900
C341        C  0.78041229  0.50911091  0.58277264     0.26900
C342        C  0.79477219  0.56420489  0.55221714     0.26900
C343        C  0.71163430  0.42091073  0.51369161     0.35500
C344        C  0.73789883  0.45018450  0.56631055     0.35500
C345        C  0.75051192  0.56250135  0.43420112     0.35500
C346        C  0.77617502  0.59219186  0.48676860     0.35500
C347        C  0.71411365  0.41848311  0.41205475    -0.22000
C348        C  0.72331684  0.45307408  0.39267117    -0.22000
C349        C  0.80846306  0.52789414  0.60628688    -0.22000
C350        C  0.81749245  0.56270975  0.58702289    -0.22000
C351        C  0.69849502  0.40227588  0.54152006    -0.23000
C352        C  0.71527601  0.42063565  0.57487039    -0.23000
C353        C  0.75570075  0.60571093  0.42617310    -0.23000
C354        C  0.77176605  0.62459547  0.45953471    -0.23000
C355        C  0.70345306  0.40854348  0.47544154    -0.18400
C356        C  0.73712574  0.53057481  0.40720915    -0.18400
C357        C  0.79398183  0.59700867  0.52469705    -0.18400
C358        C  0.76173206  0.47424600  0.59299679    -0.18400
H359        H  0.70769850  0.38629830  0.40095498     0.14500
H360        H  0.72505593  0.45263082  0.36377925     0.14500
H361        H  0.82094128  0.51787656  0.63456709     0.14500
H362        H  0.83828662  0.58462690  0.59757630     0.14500
H363        H  0.67902951  0.37777903  0.53827016     0.12800
H364        H  0.71132574  0.41300962  0.60229115     0.12800
H365        H  0.74911330  0.62185109  0.39905443     0.12800
H366        H  0.77969037  0.65819975  0.46314869     0.12800
H367        H  0.72233930  0.49605795  0.47223138     0.26100
H368        H  0.75041486  0.52757616  0.52886394     0.26100
N369        N  0.55475793  0.07165121  0.44264084    -0.27400
N370        N  0.53731907  0.05095400  0.41269029    -0.35200
C371        C  0.51978839  0.01844816  0.42351600     0.01000
C372        C  0.52621550  0.01842673  0.46215280     0.07000
C373        C  0.54857292  0.05264680  0.47353554    -0.06100
H374        H  0.50322410  0.99663594  0.40449821     0.07700
H375        H  0.55926342  0.06334846  0.50195297     0.08900
Cu376      Cu  0.53677263  0.06738591  0.35802226     0.44200
Cu377      Cu  0.58461576  0.12614618  0.43899432     0.42000
Cu378      Cu  0.58436558  0.15957825  0.34243992     0.43900
N379        N  0.54077685  0.08621967  0.30532109    -0.34700
N380        N  0.55944400  0.11935489  0.29941371    -0.29000
C381        C  0.55881719  0.12131326  0.26262958    -0.05100
C382        C  0.53842756  0.08795618  0.24456008     0.07100
C383        C  0.52737260  0.06650136  0.27257001     0.00900
H384        H  0.57220894  0.14521622  0.25005572     0.08600
H385        H  0.51177927  0.03765586  0.26969534     0.07600
N386        N  0.60532178  0.19583752  0.38987702    -0.36200
N387        N  0.60687244  0.18326178  0.42486957    -0.28400
C388        C  0.62277484  0.21435557  0.44838121    -0.03600
C389        C  0.63099683  0.24830610  0.42711089     0.05000
C390        C  0.61947483  0.23542230  0.39020503     0.03100
H391        H  0.62722744  0.21288938  0.47866267     0.08200
H392        H  0.62158254  0.25329847  0.36534247     0.07000
N393        N  0.97098540  0.90861543  0.56333150    -0.27400
N394        N  0.98466374  0.93273011  0.59273740    -0.35200
C395        C  0.00327861  0.96436625  0.58245275     0.01000
C396        C  0.00117989  0.96045468  0.54460827     0.07000
C397        C  0.98049703  0.92461191  0.53323666    -0.06100
H398        H  0.01662437  0.98920531  0.60102434     0.07700
H399        H  0.97251527  0.91145649  0.50524089     0.08900
Cu400      Cu  0.97532128  0.92442883  0.64475684     0.44200
Cu401      Cu  0.93884933  0.85667331  0.56656306     0.42000
Cu402      Cu  0.91546688  0.84433019  0.65687628     0.43900
N403        N  0.96127478  0.91549544  0.69417935    -0.34700
N404        N  0.93937030  0.88590160  0.69914494    -0.29000
C405        C  0.93679190  0.88757806  0.73487848    -0.05100
C406        C  0.95808357  0.92004470  0.75311330     0.07100
C407        C  0.97307481  0.93705332  0.72629458     0.00900
H408        H  0.92075842  0.86654762  0.74663003     0.08600
H409        H  0.99194570  0.96236215  0.72996527     0.07600
N410        N  0.89726461  0.80582519  0.61030900    -0.36200
N411        N  0.90602301  0.80943625  0.57811053    -0.28400
C412        C  0.89038522  0.77800599  0.55491484    -0.03600
C413        C  0.87072779  0.75362861  0.57329263     0.05000
C414        C  0.87574870  0.77236947  0.60831670     0.03100
H415        H  0.89318945  0.77332261  0.52674130     0.08200
H416        H  0.86532259  0.76178523  0.63122114     0.07000
C417        C  0.01705136  0.99034248  0.52226142    -0.16500
C418        C  0.51103582  0.98800449  0.48474583    -0.31700
H419        H  0.03354459  0.01546885  0.53725581     0.12500
H420        H  0.49403063  0.96339259  0.46971114     0.13100
C421        C  0.80566541  0.66390632  0.56405168    -0.13400
C422        C  0.81313890  0.63793112  0.53623295     0.08700
C423        C  0.83903870  0.65079327  0.51985985    -0.13400
C424        C  0.85725501  0.68894627  0.53123752    -0.13400
C425        C  0.85022512  0.71457822  0.55961153     0.08700
C426        C  0.82409546  0.70177147  0.57573574    -0.13400
H427        H  0.78565385  0.65463934  0.57686850     0.12700
H428        H  0.84529724  0.63104780  0.49849041     0.12700
H429        H  0.87739193  0.69770989  0.51850235     0.12700
H430        H  0.81781441  0.72102660  0.59735946     0.12700
C431        C  0.63841153  0.32859759  0.42149196    -0.13400
C432        C  0.64852155  0.28942745  0.44053002     0.08700
C433        C  0.67612413  0.28963547  0.47171149    -0.13400
C434        C  0.69400264  0.32812264  0.48293314    -0.13400
C435        C  0.68388347  0.36750037  0.46406989     0.08700
C436        C  0.65554042  0.36735854  0.43355943    -0.13400
H437        H  0.61706268  0.32925539  0.39746778     0.12700
H438        H  0.68452996  0.25974410  0.48661091     0.12700
H439        H  0.71598233  0.32710330  0.50617917     0.12700
H440        H  0.64701290  0.39722851  0.41868083     0.12700
C441        C  0.74843253  0.54302877  0.30803857    -0.13400
C442        C  0.72013931  0.56698103  0.29032619     0.08700
C443        C  0.69736751  0.57820561  0.31127016    -0.13400
C444        C  0.70273499  0.56578575  0.34902686    -0.13400
C445        C  0.73117605  0.54240826  0.36673454     0.08700
C446        C  0.75406193  0.53119815  0.34605973    -0.13400
H447        H  0.76649483  0.53415658  0.29270376     0.12700
H448        H  0.67517153  0.59624241  0.29838151     0.12700
H449        H  0.68484720  0.57470990  0.36460263     0.12700
H450        H  0.77623074  0.51330610  0.35940678     0.12700
C451        C  0.75272825  0.48138644  0.00181752    -0.16500
C452        C  0.73033303  0.51337836  0.99372865    -0.31700
H453        H  0.76189769  0.47045942  0.03068916     0.12500
H454        H  0.72056507  0.52369796  0.96475960     0.13100
C455        C  0.78629197  0.40863449  0.68356655    -0.13400
C456        C  0.78122096  0.43824781  0.71040049     0.08700
C457        C  0.76934264  0.47977686  0.69812814    -0.13400
C458        C  0.76288114  0.49140147  0.66004358    -0.13400
C459        C  0.76809166  0.46174641  0.63346021     0.08700
C460        C  0.77981776  0.42028041  0.64555337    -0.13400
H461        H  0.79507298  0.37625265  0.69174841     0.12700
H462        H  0.76532663  0.50351597  0.71791830     0.12700
H463        H  0.75385110  0.52359266  0.65124611     0.12700
H464        H  0.78408793  0.39697292  0.62550027     0.12700
C465        C  0.49593099  0.04024887  0.15009101    -0.13400
C466        C  0.51965617  0.04881364  0.12951993     0.08700
C467        C  0.54905991  0.07147662  0.14633117    -0.13400
C468        C  0.55486151  0.08513708  0.18353999    -0.13400
C469        C  0.53151113  0.07575500  0.20458168     0.08700
C470        C  0.50192916  0.05331463  0.18747190    -0.13400
H471        H  0.97306277  0.02294001  0.13731799     0.15900
H472        H  0.56746363  0.07851633  0.13058995     0.12700
H473        H  0.57794115  0.10211058  0.19608276     0.12700
H474        H  0.98344381  0.04591533  0.20296676     0.12700
C475        C  0.96523581  0.91563203  0.85783844    -0.13400
C476        C  0.97933164  0.95643702  0.86898967     0.08700
C477        C  0.98615961  0.98535550  0.84206135    -0.13400
C478        C  0.97908774  0.97356271  0.80435709    -0.13400
C479        C  0.96488376  0.93270910  0.79295913     0.08700
C480        C  0.95793966  0.90388576  0.82005352    -0.13400
H481        H  0.95965306  0.89311336  0.87837931     0.12700
H482        H  0.49636727  0.01749042  0.85014892     0.12700
H483        H  0.98441791  0.99667346  0.78414265     0.12700
H484        H  0.94728544  0.87207977  0.81219815     0.12700
C485        C  0.58984976  0.86722785  0.07188964    -0.13400
C486        C  0.56181253  0.86744371  0.04103763     0.08700
C487        C  0.55149474  0.82824145  0.02221655    -0.13400
C488        C  0.56930922  0.79011344  0.03328561    -0.13400
C489        C  0.59701665  0.78993940  0.06437539     0.08700
C490        C  0.60691839  0.82874085  0.08382020    -0.13400
H491        H  0.59859123  0.89694995  0.08671841     0.12700
H492        H  0.52968591  0.82719768  0.99874699     0.12700
H493        H  0.56097564  0.76052168  0.01805213     0.12700
H494        H  0.62835502  0.82951936  0.10773352     0.12700
C495        C  0.93532661  0.15622253  0.92593111    -0.13400
C496        C  0.93247602  0.13283017  0.95805642     0.08700
C497        C  0.90996972  0.14697709  0.97823704    -0.13400
C498        C  0.89125181  0.18434011  0.96701452    -0.13400
C499        C  0.89413369  0.20783159  0.93490209     0.08700
C500        C  0.91617331  0.19313143  0.91429993    -0.13400
H501        H  0.95261508  0.14604340  0.91001448     0.12700
H502        H  0.90704091  0.12915453  0.00284127     0.12700
H503        H  0.87421352  0.19445411  0.98323245     0.12700
H504        H  0.91918556  0.21061901  0.88960266     0.12700
loop_ 
_geom_bond_atom_site_label_1 
_geom_bond_atom_site_label_2 
_geom_bond_distance 
_geom_bond_site_symmetry_2 
_ccdc_geom_bond_type 
N1            C6   1.350       .  A
N1            C5   1.354       .  A
N1           H33   1.041       .  S
N2            C9   1.351       .  A
N2           C10   1.349       .  A
N3            C8   1.355       .  A
N3            C7   1.352       .  A
N3           H34   1.041       .  S
N4           C11   1.350       .  A
N4           C12   1.352       .  A
C5           C13   1.387       .  A
C5           C21   1.414       .  A
C6           C22   1.411   1_545  A
C6           C14   1.387       .  A
C7           C15   1.387       .  A
C7           C24   1.414   1_565  A
C8           C23   1.419       .  A
C8           C16   1.387       .  A
C9           C21   1.412   1_554  A
C9           C17   1.386       .  A
C10          C18   1.386       .  A
C10         C276   1.410       .  A
C11          C19   1.385       .  A
C11         C274   1.410   1_455  A
C12          C20   1.387       .  A
C12          C23   1.415   1_556  A
C13          C14   1.375       .  A
C13          H25   1.082       .  S
C14          H26   1.082       .  S
C15          C16   1.377       .  A
C15          H27   1.082       .  S
C16          H28   1.082       .  S
C17          C18   1.373       .  A
C17          H29   1.082       .  S
C18          H30   1.082       .  S
C19          C20   1.374       .  A
C19          H31   1.082       .  S
C20          H32   1.082       .  S
C21         C244   1.492       .  S
C22         C263   1.410       .  A
C22         C224   1.479       .  S
C23         C234   1.499       .  S
C24         C262   1.410       .  A
C24         C214   1.479       .  S
N35          C39   1.344       .  A
N35          N36   1.323       .  A
N35         Cu43   2.075       .  S
N36          C37   1.349       .  A
N36         Cu42   2.089       .  S
C37          C38   1.388       .  A
C37          H40   1.081       .  S
C38          C39   1.381       .  A
C38         C199   1.480   1_556  S
C39          H41   1.082   1_556  S
Cu42         N45   2.088       .  S
Cu43         N53   2.074       .  S
Cu44         N46   2.072       .  S
Cu44         N52   2.072       .  S
N45          C49   1.348       .  A
N45          N46   1.321       .  A
N46          C47   1.344       .  A
C47          C48   1.387       .  A
C47          H50   1.081       .  S
C48          C49   1.390       .  A
C48         C204   1.488       .  S
C49          H51   1.081       .  S
N52          C56   1.344       .  A
N52          N53   1.321       .  A
N53          C54   1.346       .  A
C54          C55   1.387       .  A
C54          H57   1.082       .  S
C55          C56   1.386       .  A
C55         C247   1.483       .  S
C56          H58   1.082       .  S
N59          C63   1.346       .  A
N59          N60   1.324       .  A
N59         Cu67   2.078       .  S
N60          C61   1.347       .  A
N60         Cu66   2.090       .  S
C61          C62   1.389       .  A
C61          H64   1.081       .  S
C62          C63   1.382       .  A
C62         C200   1.483   1_554  S
C63          H65   1.082   1_554  S
Cu66         N69   2.090       .  S
Cu67         N77   2.077       .  S
Cu68         N70   2.076       .  S
Cu68         N76   2.076       .  S
N69          C73   1.349       .  A
N69          N70   1.322       .  A
N70          C71   1.344       .  A
C71          C72   1.385       .  A
C71          H74   1.082       .  S
C72          C73   1.389       .  A
C72         C190   1.485       .  S
C73          H75   1.082       .  S
N76          C80   1.346       .  A
N76          N77   1.322       .  A
N77          C78   1.346       .  A
C78          C79   1.386       .  A
C78          H81   1.082       .  S
C79          C80   1.385       .  A
C79         C237   1.480       .  S
C80          H82   1.082       .  S
N83          C88   1.355       .  A
N83          C87   1.355       .  A
N83         H115   1.040       .  S
N84          C91   1.353       .  A
N84          C92   1.352       .  A
N85          C90   1.354       .  A
N85          C89   1.353       .  A
N85         H116   1.039       .  S
N86          C93   1.352       .  A
N86          C94   1.352       .  A
C87          C95   1.388       .  A
C87         C103   1.419       .  A
C88         C104   1.415       .  A
C88          C96   1.386       .  A
C89          C97   1.387       .  A
C89         C106   1.415       .  A
C90         C105   1.416       .  A
C90          C98   1.387       .  A
C91         C103   1.417       .  A
C91          C99   1.387       .  A
C92         C106   1.415       .  A
C92         C100   1.385       .  A
C93         C101   1.386       .  A
C93         C104   1.413       .  A
C94         C102   1.386       .  A
C94         C105   1.414       .  A
C95          C96   1.376       .  A
C95         H107   1.082       .  S
C96         H108   1.082       .  S
C97          C98   1.376       .  A
C97         H109   1.082       .  S
C98         H110   1.082       .  S
C99         C100   1.374       .  A
C99         H111   1.082       .  S
C100        H112   1.082       .  S
C101        C102   1.373       .  A
C101        H113   1.082       .  S
C102        H114   1.082       .  S
C103        C183   1.499       .  S
C104        C193   1.487       .  S
C105        C170   1.489       .  S
C106        C207   1.490       .  S
N117        C121   1.349       .  A
N117        N118   1.322       .  A
N117       Cu125   2.093       .  S
N118        C119   1.342       .  A
N118       Cu124   2.060       .  S
C119        C120   1.378       .  A
C119        H122   1.082   1_545  S
C120        C121   1.391       .  A
C120        C166   1.478   1_545  S
C121        H123   1.081       .  S
Cu124       N127   2.059       .  S
Cu125       N135   2.094       .  S
Cu126       N128   2.074       .  S
Cu126       N134   2.076       .  S
N127        C131   1.342       .  A
N127        N128   1.320       .  A
N128        C129   1.346       .  A
C129        C130   1.387       .  A
C129        H132   1.082       .  S
C130        C131   1.383       .  A
C130        C217   1.477       .  S
C131        H133   1.082       .  S
N134        C138   1.345       .  A
N134        N135   1.324       .  A
N135        C136   1.348       .  A
C136        C137   1.387       .  A
C136        H139   1.082       .  S
C137        C138   1.382       .  A
C137        C180   1.479       .  S
C138        H140   1.082       .  S
N141        C145   1.348       .  A
N141        N142   1.321       .  A
N141       Cu149   2.087       .  S
N142        C143   1.342       .  A
N142       Cu148   2.054       .  S
C143        C144   1.378       .  A
C143        H146   1.082       .  S
C144        C145   1.391       .  A
C144        C165   1.478       .  S
C145        H147   1.081       .  S
Cu148       N151   2.054       .  S
Cu149       N159   2.088       .  S
Cu150       N152   2.070       .  S
Cu150       N158   2.071       .  S
N151        C155   1.340       .  A
N151        N152   1.320       .  A
N152        C153   1.345       .  A
C153        C154   1.387       .  A
C153        H156   1.082       .  S
C154        C155   1.383       .  A
C154        C227   1.477       .  S
C155        H157   1.082       .  S
N158        C162   1.343       .  A
N158        N159   1.324       .  A
N159        C160   1.346       .  A
C160        C161   1.387       .  A
C160        H163   1.082       .  S
C161        C162   1.384       .  A
C161        C173   1.482       .  S
C162        H164   1.082       .  S
C165        H167   1.085   1_565  S
C165        C418   1.340       .  D
C166        H168   1.085   1_455  S
C166        C417   1.340       .  D
C169        C170   1.403       .  A
C169        C174   1.397       .  A
C169        H175   1.083       .  S
C170        C171   1.404       .  A
C171        C172   1.399       .  A
C171        H176   1.083       .  S
C172        C173   1.406       .  A
C172        H177   1.082       .  S
C173        C174   1.406       .  A
C174        H178   1.082       .  S
C179        C180   1.404       .  A
C179        C184   1.400       .  A
C179        H185   1.083       .  S
C180        C181   1.403       .  A
C181        C182   1.400       .  A
C181        H186   1.083       .  S
C182        C183   1.407       .  A
C182        H187   1.083       .  S
C183        C184   1.407       .  A
C184        H188   1.083       .  S
C189        C190   1.406       .  A
C189        C194   1.402       .  A
C189        H195   1.083       .  S
C190        C191   1.407       .  A
C191        C192   1.398       .  A
C191        H196   1.082       .  S
C192        C193   1.401       .  A
C192        H197   1.083       .  S
C193        C194   1.404       .  A
C194        H198   1.083       .  S
C199        H201   1.085       .  S
C199        C200   1.344   1_554  D
C200        H202   1.086       .  S
C203        C204   1.408       .  A
C203        C208   1.398       .  A
C203        H209   1.081       .  S
C204        C205   1.407       .  A
C205        C206   1.400       .  A
C205        H210   1.082       .  S
C206        C207   1.404       .  A
C206        H211   1.083       .  S
C207        C208   1.402       .  A
C208        H212   1.083       .  S
C213        C214   1.401   1_655  A
C213        C218   1.397   1_655  A
C213        H471   1.083       .  S
C214        C215   1.401       .  A
C215        C216   1.397       .  A
C215        H220   1.083       .  S
C216        C217   1.405       .  A
C216        H221   1.082       .  S
C217        C218   1.406       .  A
C218        H474   1.083   1_455  S
H219        C465   1.083       .  S
H222        C470   1.083       .  S
C223        C224   1.402       .  A
C223        C228   1.397       .  A
C223        H229   1.083       .  S
C224        C225   1.401       .  A
C225        C226   1.395       .  A
C225        H482   1.083   1_565  S
C226        C227   1.406       .  A
C226        H231   1.082       .  S
C227        C228   1.405       .  A
C228        H232   1.082       .  S
H230        C477   1.083   1_545  S
C233        C234   1.407       .  A
C233        C238   1.400       .  A
C233        H239   1.083       .  S
C234        C235   1.408       .  A
C235        C236   1.399       .  A
C235        H240   1.083   1_554  S
C236        C237   1.403       .  A
C236        H241   1.083       .  S
C237        C238   1.404       .  A
C238        H242   1.083       .  S
C243        C244   1.404       .  A
C243        C248   1.398       .  A
C243        H249   1.083       .  S
C244        C245   1.405       .  A
C245        C246   1.398       .  A
C245        H250   1.083   1_556  S
C246        C247   1.406       .  A
C246        H251   1.082       .  S
C247        C248   1.406       .  A
C248        H252   1.082       .  S
N253        C258   1.350       .  A
N253        C257   1.354       .  A
N253        H285   1.041       .  S
N254        C261   1.351       .  A
N254        C262   1.349   1_655  A
N255        C260   1.355       .  A
N255        C259   1.352       .  A
N255        H286   1.041       .  S
N256        C263   1.350       .  A
N256        C264   1.352       .  A
C257        C265   1.387       .  A
C257        C273   1.414       .  A
C258        C274   1.411   1_545  A
C258        C266   1.387       .  A
C259        C267   1.387       .  A
C259        C276   1.414   1_565  A
C260        C275   1.419       .  A
C260        C268   1.387       .  A
C261        C273   1.412   1_554  A
C261        C269   1.386       .  A
C262        C270   1.386   1_455  A
C263        C271   1.385       .  A
C264        C272   1.387       .  A
C264        C275   1.415   1_556  A
C265        C266   1.375       .  A
C265        H277   1.082       .  S
C266        H278   1.082       .  S
C267        C268   1.377       .  A
C267        H279   1.082       .  S
C268        H280   1.082       .  S
C269        C270   1.373       .  A
C269        H281   1.082       .  S
C270        H282   1.082   1_655  S
C271        C272   1.374       .  A
C271        H283   1.082       .  S
C272        H284   1.082       .  S
C273        C496   1.492       .  S
C274        C476   1.479       .  S
C275        C486   1.499       .  S
C276        C466   1.479       .  S
N287        C291   1.344       .  A
N287        N288   1.323       .  A
N287       Cu295   2.075       .  S
N288        C289   1.349       .  A
N288       Cu294   2.089       .  S
C289        C290   1.388       .  A
C289        H292   1.081       .  S
C290        C291   1.381       .  A
C290        C451   1.480   1_556  S
C291        H293   1.082   1_556  S
Cu294       N297   2.088       .  S
Cu295       N305   2.075       .  S
Cu296       N298   2.072       .  S
Cu296       N304   2.072       .  S
N297        C301   1.348       .  A
N297        N298   1.321       .  A
N298        C299   1.344       .  A
C299        C300   1.387       .  A
C299        H302   1.081       .  S
C300        C301   1.390       .  A
C300        C456   1.488       .  S
C301        H303   1.081       .  S
N304        C308   1.344       .  A
N304        N305   1.321       .  A
N305        C306   1.346       .  A
C306        C307   1.388       .  A
C306        H309   1.082       .  S
C307        C308   1.386       .  A
C307        C499   1.483       .  S
C308        H310   1.082       .  S
N311        C315   1.346       .  A
N311        N312   1.324       .  A
N311       Cu319   2.078       .  S
N312        C313   1.347       .  A
N312       Cu318   2.090       .  S
C313        C314   1.389       .  A
C313        H316   1.081       .  S
C314        C315   1.382       .  A
C314        C452   1.483   1_554  S
C315        H317   1.082   1_554  S
Cu318       N321   2.090       .  S
Cu319       N329   2.077       .  S
Cu320       N322   2.076       .  S
Cu320       N328   2.076       .  S
N321        C325   1.349       .  A
N321        N322   1.322       .  A
N322        C323   1.344       .  A
C323        C324   1.385       .  A
C323        H326   1.082       .  S
C324        C325   1.389       .  A
C324        C442   1.485       .  S
C325        H327   1.082       .  S
N328        C332   1.346       .  A
N328        N329   1.322       .  A
N329        C330   1.346       .  A
C330        C331   1.386       .  A
C330        H333   1.082       .  S
C331        C332   1.385       .  A
C331        C489   1.480       .  S
C332        H334   1.082       .  S
N335        C340   1.355       .  A
N335        C339   1.355       .  A
N335        H367   1.040       .  S
N336        C343   1.353       .  A
N336        C344   1.352       .  A
N337        C342   1.354       .  A
N337        C341   1.353       .  A
N337        H368   1.039       .  S
N338        C345   1.352       .  A
N338        C346   1.352       .  A
C339        C347   1.387       .  A
C339        C355   1.419       .  A
C340        C356   1.415       .  A
C340        C348   1.386       .  A
C341        C349   1.387       .  A
C341        C358   1.416       .  A
C342        C357   1.416       .  A
C342        C350   1.387       .  A
C343        C355   1.417       .  A
C343        C351   1.387       .  A
C344        C358   1.415       .  A
C344        C352   1.386       .  A
C345        C353   1.386       .  A
C345        C356   1.413       .  A
C346        C354   1.386       .  A
C346        C357   1.414       .  A
C347        C348   1.376       .  A
C347        H359   1.082       .  S
C348        H360   1.082       .  S
C349        C350   1.376       .  A
C349        H361   1.082       .  S
C350        H362   1.082       .  S
C351        C352   1.374       .  A
C351        H363   1.082       .  S
C352        H364   1.082       .  S
C353        C354   1.373       .  A
C353        H365   1.082       .  S
C354        H366   1.082       .  S
C355        C435   1.499       .  S
C356        C445   1.487       .  S
C357        C422   1.489       .  S
C358        C459   1.490       .  S
N369        C373   1.349       .  A
N369        N370   1.322       .  A
N369       Cu377   2.094       .  S
N370        C371   1.342       .  A
N370       Cu376   2.059       .  S
C371        C372   1.377       .  A
C371        H374   1.082   1_545  S
C372        C373   1.391       .  A
C372        C418   1.478   1_545  S
C373        H375   1.081       .  S
Cu376       N379   2.059       .  S
Cu377       N387   2.094       .  S
Cu378       N380   2.074       .  S
Cu378       N386   2.076       .  S
N379        C383   1.342       .  A
N379        N380   1.320       .  A
N380        C381   1.346       .  A
C381        C382   1.387       .  A
C381        H384   1.082       .  S
C382        C383   1.383       .  A
C382        C469   1.477       .  S
C383        H385   1.082       .  S
N386        C390   1.345       .  A
N386        N387   1.324       .  A
N387        C388   1.349       .  A
C388        C389   1.387       .  A
C388        H391   1.082       .  S
C389        C390   1.382       .  A
C389        C432   1.479       .  S
C390        H392   1.082       .  S
N393        C397   1.348       .  A
N393        N394   1.321       .  A
N393       Cu401   2.088       .  S
N394        C395   1.342   1_655  A
N394       Cu400   2.054       .  S
C395        C396   1.378       .  A
C395        H398   1.082       .  S
C396        C397   1.391   1_455  A
C396        C417   1.478       .  S
C397        H399   1.081       .  S
Cu400       N403   2.054       .  S
Cu401       N411   2.088       .  S
Cu402       N404   2.070       .  S
Cu402       N410   2.071       .  S
N403        C407   1.340       .  A
N403        N404   1.320       .  A
N404        C405   1.345       .  A
C405        C406   1.388       .  A
C405        H408   1.082       .  S
C406        C407   1.383       .  A
C406        C479   1.477       .  S
C407        H409   1.081       .  S
N410        C414   1.343       .  A
N410        N411   1.324       .  A
N411        C412   1.346       .  A
C412        C413   1.387       .  A
C412        H415   1.082       .  S
C413        C414   1.384       .  A
C413        C425   1.482       .  S
C414        H416   1.082       .  S
C417        H419   1.085   1_565  S
C418        H420   1.085       .  S
C421        C422   1.403       .  A
C421        C426   1.398       .  A
C421        H427   1.083       .  S
C422        C423   1.404       .  A
C423        C424   1.399       .  A
C423        H428   1.083       .  S
C424        C425   1.406       .  A
C424        H429   1.082       .  S
C425        C426   1.406       .  A
C426        H430   1.082       .  S
C431        C432   1.404       .  A
C431        C436   1.400       .  A
C431        H437   1.083       .  S
C432        C433   1.403       .  A
C433        C434   1.400       .  A
C433        H438   1.083       .  S
C434        C435   1.407       .  A
C434        H439   1.083       .  S
C435        C436   1.407       .  A
C436        H440   1.083       .  S
C441        C442   1.406       .  A
C441        C446   1.402       .  A
C441        H447   1.083       .  S
C442        C443   1.407       .  A
C443        C444   1.398       .  A
C443        H448   1.082       .  S
C444        C445   1.401       .  A
C444        H449   1.083       .  S
C445        C446   1.404       .  A
C446        H450   1.083       .  S
C451        H453   1.085       .  S
C451        C452   1.344   1_554  D
C452        H454   1.086       .  S
C455        C456   1.408       .  A
C455        C460   1.398       .  A
C455        H461   1.081       .  S
C456        C457   1.407       .  A
C457        C458   1.400       .  A
C457        H462   1.082       .  S
C458        C459   1.404       .  A
C458        H463   1.083       .  S
C459        C460   1.402       .  A
C460        H464   1.083       .  S
C465        C466   1.401       .  A
C465        C470   1.397       .  A
C466        C467   1.401       .  A
C467        C468   1.397       .  A
C467        H472   1.083       .  S
C468        C469   1.405       .  A
C468        H473   1.082       .  S
C469        C470   1.406       .  A
C475        C476   1.401       .  A
C475        C480   1.397       .  A
C475        H481   1.083       .  S
C476        C477   1.401       .  A
C477        C478   1.395       .  A
C478        C479   1.406       .  A
C478        H483   1.082       .  S
C479        C480   1.405       .  A
C480        H484   1.082       .  S
C485        C486   1.407       .  A
C485        C490   1.400       .  A
C485        H491   1.083       .  S
C486        C487   1.408       .  A
C487        C488   1.399       .  A
C487        H492   1.083   1_554  S
C488        C489   1.403       .  A
C488        H493   1.083       .  S
C489        C490   1.404       .  A
C490        H494   1.083       .  S
C495        C496   1.404       .  A
C495        C500   1.398       .  A
C495        H501   1.083       .  S
C496        C497   1.405       .  A
C497        C498   1.398       .  A
C497        H502   1.083   1_556  S
C498        C499   1.406       .  A
C498        H503   1.082       .  S
C499        C500   1.406       .  A
C500        H504   1.082       .  S
