geometry optimzed in LAMMPS
_audit_creation_date              2020-11-30 
_audit_creation_method            'lammps2cif' 
_symmetry_space_group_name_H-M    'P1' 
_symmetry_Int_Tables_number       1 
_symmetry_cell_setting            triclinic 
loop_ 
_symmetry_equiv_pos_as_xyz 
  x,y,z 
_cell_length_a                    42.15636752 
_cell_length_b                    44.45620224607276 
_cell_length_c                    31.855379977263933 
_cell_angle_alpha                 89.9003716567422 
_cell_angle_beta                  90.09968475817819 
_cell_angle_gamma                 90.38571255460198 
loop_ 
_atom_site_label 
_atom_site_type_symbol 
_atom_site_fract_x 
_atom_site_fract_y 
_atom_site_fract_z 
_atom_site_charge 
C1          C  0.71635700  0.25980880  0.45939451     0.30400
C2          C  0.70504344  0.26006726  0.04254083     0.30400
C3          C  0.68197609  0.25775054  0.47589639    -0.05800
C4          C  0.73211440  0.23247392  0.48091812    -0.06600
C5          C  0.73212855  0.28699144  0.48138812    -0.06500
C6          C  0.67464904  0.25774773  0.01744173    -0.05800
C7          C  0.72331171  0.23067364  0.03211720    -0.06600
C8          C  0.72512948  0.28432077  0.02083724    -0.06500
C9          C  0.64302047  0.25800049  0.02739285    -0.31900
N10         N  0.63068627  0.25573602  0.49485750     0.14600
C11         C  0.65080971  0.25369604  0.46146793    -0.31900
H12         H  0.64344330  0.25026208  0.42927454     0.16600
C13         C  0.73733007  0.20619755  0.05208083    -0.30900
N14         N  0.74639972  0.18607534  0.02224030     0.13300
C15         C  0.74693738  0.20532197  0.47175415    -0.30900
C16         C  0.74109174  0.31081067  0.03067605    -0.31100
N17         N  0.75361652  0.32246859  0.99487867     0.13900
H18         H  0.74284806  0.32127820  0.06124798     0.16500
C19         C  0.74927962  0.31160361  0.46767776    -0.31200
H20         H  0.75470091  0.31744801  0.43546116     0.16500
H21         H  0.75046163  0.19585528  0.44083253     0.16500
H22         H  0.63273870  0.26222547  0.05796118     0.16600
H23         H  0.74012868  0.20296915  0.08555044     0.16500
C24         C  0.70724259  0.28089697  0.20784406     0.30400
C25         C  0.71511519  0.27759992  0.28925585     0.30400
C26         C  0.67646173  0.27993112  0.23319031    -0.05800
C27         C  0.72803880  0.25419814  0.22278309    -0.06600
C28         C  0.72565268  0.30822051  0.22585236    -0.06500
C29         C  0.67990656  0.27572034  0.27496076    -0.05800
C30         C  0.73050854  0.25144074  0.26526332    -0.06600
C31         C  0.72898475  0.30618367  0.26865486    -0.06500
C32         C  0.64934395  0.26904793  0.29021738    -0.31900
N33         N  0.62792044  0.27134519  0.25801179     0.14600
C34         C  0.64446828  0.27853299  0.22324891    -0.31900
H35         H  0.63423993  0.28003413  0.19209187     0.16600
C36         C  0.74641444  0.22465628  0.27321545    -0.30900
N37         N  0.75546595  0.21220551  0.23615381     0.13300
C38         C  0.74463102  0.23036944  0.20495126    -0.30900
C39         C  0.74606618  0.33084115  0.28250443    -0.31100
N40         N  0.75387864  0.34813357  0.24908597     0.13900
H41         H  0.75264183  0.33574200  0.31466171     0.16500
C42         C  0.74217854  0.33428869  0.21393065    -0.31200
H43         H  0.74559513  0.34248329  0.18225985     0.16500
H44         H  0.74737196  0.22588103  0.17181174     0.16500
H45         H  0.64337793  0.26259478  0.32201205     0.16600
H46         H  0.75118925  0.21492595  0.30375370     0.16500
C47         C  0.85389713  0.50198067  0.04098751     0.30400
C48         C  0.85668700  0.51806757  0.45953054     0.30400
C49         C  0.83851781  0.47716616  0.01541299    -0.05800
C50         C  0.83728377  0.03142440  0.02758143    -0.06600
C51         C  0.88721651  0.50570657  0.02108585    -0.06500
C52         C  0.84234870  0.48654558  0.46905910    -0.05800
C53         C  0.83986639  0.03950893  0.48884413    -0.06600
C54         C  0.89010957  0.51538314  0.47907234    -0.06500
C55         C  0.82942434  0.46107747  0.44913250    -0.31900
N56         N  0.81669669  0.43635557  0.98788386     0.14600
C57         C  0.82535400  0.44948255  0.02432810    -0.31900
H58         H  0.82229867  0.43952121  0.05511640     0.16600
C59         C  0.82503290  0.06666915  0.48337190    -0.30900
N60         N  0.81197555  0.07466923  0.01566666     0.13300
C61         C  0.82251764  0.05591289  0.04625922    -0.30900
C62         C  0.92156371  0.01588902  0.46552587    -0.31100
N63         N  0.93757588  0.00836005  0.99910414     0.13900
H64         H  0.92977104  0.01870070  0.43358602     0.16500
C65         C  0.91886107  0.00613171  0.03360486    -0.31200
H66         H  0.92777082  0.00447006  0.06538797     0.16500
H67         H  0.81964287  0.05999691  0.07941966     0.16500
H68         H  0.82538651  0.45826404  0.41580246     0.16600
H69         H  0.82115418  0.07816660  0.45383998     0.16500
C70         C  0.86055087  0.52497008  0.20793577     0.30400
C71         C  0.85952235  0.53593525  0.29006298     0.30400
C72         C  0.89371963  0.52918707  0.22791331    -0.05800
C73         C  0.84482402  0.05499207  0.22019584    -0.06600
C74         C  0.84477363  0.50061329  0.23498131    -0.06500
C75         C  0.89347170  0.53357014  0.27109512    -0.05800
C76         C  0.84417414  0.05996459  0.26266261    -0.06600
C77         C  0.84450130  0.50534256  0.27697169    -0.06500
C78         C  0.92539942  0.03158360  0.28393004    -0.31900
N79         N  0.94427486  0.02849733  0.24949426     0.14600
C80         C  0.92537754  0.02806493  0.21506367    -0.31900
H81         H  0.93375979  0.02465821  0.18333204     0.16600
C82         C  0.83067424  0.08776509  0.26959821    -0.30900
N83         N  0.82277559  0.10021968  0.23220732     0.13300
C84         C  0.83193643  0.08069761  0.20146049    -0.30900
C85         C  0.83098445  0.47925621  0.29485923    -0.31100
N86         N  0.82277505  0.45962695  0.26355767     0.13900
H87         H  0.82737269  0.47496398  0.32792872     0.16500
C88         C  0.83123844  0.47271877  0.22703742    -0.31200
H89         H  0.82783571  0.46243262  0.19653012     0.16500
H90         H  0.82893516  0.08458018  0.16818267     0.16500
H91         H  0.93381638  0.03091226  0.31602681     0.16600
H92         H  0.82671053  0.09817951  0.29986226     0.16500
O93         O  0.52992989  0.27367148  0.42751618    -0.72600
O94         O  0.53183778  0.27351531  0.07436783    -0.73600
O95         O  0.57723021  0.27432433  0.99700111    -0.62200
O96         O  0.48212610  0.27364714  0.00409649    -0.70600
O97         O  0.48221218  0.22392432  0.00718221    -0.70100
O98         O  0.57788305  0.22457240  0.99490983    -0.61400
O99         O  0.53393176  0.22485937  0.07459513    -0.73900
O100        O  0.53296817  0.22509575  0.42788329    -0.72700
Cu101      Cu  0.52980533  0.27517439  0.00067846     1.04600
Cu102      Cu  0.53503469  0.22359998  0.50165000     1.04300
C103        C  0.53113290  0.24928145  0.40368419     0.93600
C104        C  0.53339711  0.24923486  0.09840853     0.92800
C105        C  0.59247592  0.24978776  0.99338595     0.84900
C106        C  0.46716321  0.24877177  0.00804360     0.91200
O107        O  0.49179958  0.21339723  0.24581331    -0.72600
O108        O  0.58572630  0.23602051  0.25571286    -0.73600
O109        O  0.53627967  0.22518095  0.32488726    -0.62200
O110        O  0.54029916  0.22574407  0.17726925    -0.70600
O111        O  0.52820566  0.27299809  0.17702880    -0.70100
O112        O  0.52522158  0.27263492  0.32443620    -0.61400
O113        O  0.57363067  0.28428554  0.25403464    -0.73900
O114        O  0.47941609  0.26159318  0.24656389    -0.72700
Cu115      Cu  0.53894431  0.22366707  0.25099425     1.04600
Cu116      Cu  0.52620819  0.27433054  0.25056660     1.04300
C117        C  0.47086588  0.23397755  0.24322352     0.93600
C118        C  0.59449886  0.26360399  0.25706050     0.92800
C119        C  0.53076672  0.24900747  0.34869091     0.84900
C120        C  0.53412318  0.24933620  0.15321558     0.91200
O121        O  0.98665349  0.48268598  0.99890749    -0.72600
O122        O  0.08316088  0.48222803  0.99421553    -0.73600
O123        O  0.03643035  0.48221613  0.07145624    -0.62200
O124        O  0.03476409  0.48268751  0.42512709    -0.70600
O125        O  0.03940495  0.03138447  0.42374245    -0.70100
O126        O  0.03789610  0.03087621  0.07166944    -0.61400
O127        O  0.08429433  0.03177235  0.99521889    -0.73900
O128        O  0.99098099  0.03469322  0.49650186    -0.72700
Cu129      Cu  0.03498329  0.48119528  0.99726817     1.04600
Cu130      Cu  0.03878520  0.03390607  0.49714174     1.04300
C131        C  0.97186227  0.00797165  0.99893907     0.93600
C132        C  0.09887364  0.00674612  0.99253654     0.92800
C133        C  0.03762825  0.00632808  0.09536178     0.84900
C134        C  0.03749336  0.00686158  0.40037086     0.91200
O135        O  0.07874496  0.47019832  0.25139040    -0.72600
O136        O  0.98539708  0.49297745  0.24892309    -0.73600
O137        O  0.03262217  0.48211978  0.17522694    -0.62200
O138        O  0.03159637  0.48250771  0.32284972    -0.70600
O139        O  0.04489504  0.02980707  0.32180915    -0.70100
O140        O  0.04478361  0.02952453  0.17455052    -0.61400
O141        O  0.99869650  0.04145176  0.24890034    -0.73900
O142        O  0.09242557  0.01812210  0.24925123    -0.72700
Cu143      Cu  0.03172045  0.48049335  0.24945749     1.04600
Cu144      Cu  0.04571970  0.03115123  0.24849344     1.04300
C145        C  0.10018429  0.49064952  0.25188883     0.93600
C146        C  0.97745132  0.02081243  0.24926563     0.92800
C147        C  0.03846855  0.00593368  0.15049901     0.84900
C148        C  0.03806928  0.00638071  0.34584407     0.91200
C149        C  0.34846518  0.23191169  0.04215318     0.30400
C150        C  0.35764214  0.24481576  0.45805281     0.30400
C151        C  0.33468696  0.21075028  0.00918805    -0.05800
C152        C  0.33103127  0.26224907  0.03333924    -0.06600
C153        C  0.38246111  0.23939179  0.02705631    -0.06500
C154        C  0.33753345  0.21696849  0.46996326    -0.05800
C155        C  0.33979594  0.27031813  0.48140477    -0.06600
C156        C  0.38825089  0.24317798  0.48327842    -0.06500
C157        C  0.32150357  0.19387987  0.44922714    -0.31900
N158        N  0.30907444  0.17646712  0.97131082     0.14600
C159        C  0.31869063  0.18365759  0.01045141    -0.31900
H160        H  0.31393377  0.17017013  0.03805658     0.16600
C161        C  0.32504802  0.29783562  0.47442773    -0.30900
N162        N  0.30468208  0.30558190  0.02650781     0.13300
C163        C  0.31470377  0.28460020  0.05480731    -0.30900
C164        C  0.41948575  0.24851617  0.47355601    -0.31100
N165        N  0.43316199  0.24879658  0.00984983     0.13900
H166        H  0.42901840  0.25408556  0.44290492     0.16500
C167        C  0.41381395  0.23912769  0.04142823    -0.31200
H168        H  0.42197935  0.23192896  0.07202992     0.16500
H169        H  0.31054720  0.28561096  0.08826613     0.16500
H170        H  0.31912106  0.19110302  0.41560806     0.16600
H171        H  0.32051971  0.30835845  0.44444496     0.16500
C172        C  0.35278648  0.20620758  0.20644696     0.30400
C173        C  0.35672503  0.21995616  0.28776100     0.30400
C174        C  0.38735577  0.21279591  0.22222272    -0.05800
C175        C  0.33521527  0.23526348  0.21980941    -0.06600
C176        C  0.34008765  0.18204116  0.23636534    -0.06500
C177        C  0.38831827  0.21960058  0.26428444    -0.05800
C178        C  0.33587869  0.24115744  0.26210884    -0.06600
C179        C  0.34102280  0.18895178  0.27838698    -0.06500
C180        C  0.41883874  0.22742100  0.27545413    -0.31900
N181        N  0.43750686  0.22607000  0.24143859     0.14600
C182        C  0.41874375  0.21748071  0.20816294    -0.31900
H183        H  0.42696181  0.21584026  0.17611263     0.16600
C184        C  0.31712049  0.26595614  0.26922804    -0.30900
N185        N  0.30727665  0.27684460  0.23174238     0.13300
C186        C  0.31841042  0.25855500  0.20113835    -0.30900
C187        C  0.32551208  0.16523457  0.29900262    -0.31100
N188        N  0.31650592  0.14417483  0.27000868     0.13900
H189        H  0.32135251  0.16337083  0.33241345     0.16500
C190        C  0.32536232  0.15445390  0.23173661    -0.31200
H191        H  0.32093144  0.14282155  0.20243597     0.16500
H192        H  0.31462861  0.26218291  0.16792904     0.16500
H193        H  0.42686059  0.23444515  0.30627075     0.16600
H194        H  0.31211971  0.27625366  0.29924844     0.16500
C195        C  0.21530507  0.48198730  0.45451341     0.30400
C196        C  0.21336367  0.49748271  0.03845430     0.30400
C197        C  0.22862489  0.45873854  0.48503591    -0.05800
C198        C  0.23502500  0.01128947  0.46389937    -0.06600
C199        C  0.18257691  0.49053188  0.47249012    -0.06500
C200        C  0.22737614  0.46659644  0.02627629    -0.05800
C201        C  0.23370043  0.02018795  0.01361559    -0.06600
C202        C  0.18185298  0.50074350  0.01493528    -0.06500
C203        C  0.24050897  0.44202022  0.04719219    -0.31900
N204        N  0.24868398  0.42093498  0.01860741     0.14600
C205        C  0.24142393  0.43031216  0.48169324    -0.31900
H206        H  0.24426258  0.41744277  0.45317210     0.16600
C207        C  0.23970128  0.05098950  0.01666368    -0.30900
N208        N  0.24856526  0.06197524  0.97857380     0.13300
C209        C  0.24391628  0.03714142  0.44177425    -0.30900
C210        C  0.15186067  0.51076832  0.02477993    -0.31100
N211        N  0.13386939  0.50385726  0.49234569     0.13900
H212        H  0.14381470  0.51789220  0.05544905     0.16500
C213        C  0.15128301  0.49364574  0.45946247    -0.31200
H214        H  0.14175558  0.48838570  0.42875474     0.16500
H215        H  0.24535006  0.03946762  0.40797459     0.16500
H216        H  0.24353531  0.43939779  0.08067427     0.16600
H217        H  0.23744373  0.06452882  0.04463292     0.16500
C218        C  0.21474306  0.46776388  0.21005615     0.30400
C219        C  0.21366629  0.45530256  0.29156283     0.30400
C220        C  0.22637076  0.43627811  0.22185616    -0.05800
C221        C  0.23397517  0.98942827  0.23687087    -0.06600
C222        C  0.18177879  0.47069210  0.23072757    -0.06500
C223        C  0.22525244  0.43004606  0.26357670    -0.05800
C224        C  0.23357923  0.98337417  0.27911677    -0.06600
C225        C  0.18063514  0.46374384  0.27304770    -0.06500
C226        C  0.23618588  0.40118726  0.26954233    -0.31900
N227        N  0.24427278  0.38961815  0.23179701     0.14600
C228        C  0.23843601  0.41096403  0.20209538    -0.31900
H229        H  0.24293850  0.40840869  0.16884405     0.16600
C230        C  0.24526443  0.00907653  0.29924399    -0.30900
N231        N  0.25336746  0.02992191  0.26976650     0.13300
C232        C  0.24537708  0.01855253  0.23177730    -0.30900
C233        C  0.15014951  0.47144353  0.28636418    -0.31100
N234        N  0.13331930  0.48234934  0.25300108     0.13900
H235        H  0.14120356  0.47026998  0.31812678     0.16500
C236        C  0.15280991  0.48275457  0.21930667    -0.31200
H237        H  0.14634779  0.49134266  0.18866566     0.16500
H238        H  0.24707474  0.03101997  0.20261472     0.16500
H239        H  0.23884328  0.38968031  0.29929710     0.16600
H240        H  0.24689728  0.01274512  0.33264752     0.16500
C241        C  0.24675611  0.96530231  0.39326090    -0.01500
C242        C  0.21662258  0.46794766  0.41306404     0.08200
C243        C  0.19231755  0.44718694  0.40087862    -0.01600
C244        C  0.19211983  0.43754503  0.35966005    -0.01600
C245        C  0.21782901  0.44588841  0.33517176     0.08300
C246        C  0.24734419  0.95167757  0.35441637    -0.01800
Br247      Br  0.28708516  0.94468244  0.32558682    -0.00300
Br248      Br  0.28709737  0.97667281  0.41833997    -0.00400
Br249      Br  0.16172147  0.40852727  0.33890065    -0.00400
Br250      Br  0.16507319  0.42594376  0.44012035    -0.00400
C251        C  0.19125600  0.46172575  0.13995447    -0.01500
C252        C  0.21574965  0.47276208  0.16487811     0.08200
C253        C  0.24235972  0.98542538  0.14655330    -0.01600
C254        C  0.23872770  0.00041013  0.10891536    -0.01600
C255        C  0.21071332  0.49543055  0.08470429     0.08300
C256        C  0.18794600  0.47324844  0.09995684    -0.01800
Br257      Br  0.15823783  0.44962010  0.06546374    -0.00300
Br258      Br  0.16657931  0.42649235  0.15788932    -0.00400
Br259      Br  0.27622765  0.02176494  0.08988814    -0.00400
Br260      Br  0.28454767  0.97624145  0.16768142    -0.00400
C261        C  0.26793460  0.11339715  0.28291546    -0.01500
C262        C  0.30106728  0.11531625  0.27686653     0.08200
C263        C  0.31831112  0.08851072  0.27134437    -0.01600
C264        C  0.30265834  0.06028458  0.27125572    -0.01600
C265        C  0.26951323  0.05841022  0.27628899     0.08300
C266        C  0.25227480  0.08504324  0.28293056    -0.01800
Br267      Br  0.20706371  0.08232814  0.29017534    -0.00300
Br268      Br  0.24394071  0.14988542  0.28743524    -0.00400
Br269      Br  0.32620376  0.02384501  0.26277247    -0.00400
Br270      Br  0.36335057  0.09085097  0.26187503    -0.00400
C271        C  0.25814982  0.30619408  0.23788495    -0.01500
C272        C  0.29022894  0.30451279  0.22613966     0.08200
C273        C  0.30638817  0.33074831  0.21319797    -0.01600
C274        C  0.29089130  0.35877237  0.21361163    -0.01600
C275        C  0.25887589  0.36063316  0.22609291     0.08300
C276        C  0.24246299  0.33411385  0.23777728    -0.01800
Br277      Br  0.19867074  0.33625405  0.25460010    -0.00300
Br278      Br  0.23626876  0.26999914  0.25487843    -0.00400
Br279      Br  0.31444939  0.39503206  0.20164401    -0.00400
Br280      Br  0.35047802  0.32835753  0.19793181    -0.00400
C281        C  0.24807912  0.11475152  0.45773288    -0.01500
C282        C  0.26263651  0.09128625  0.97048971     0.08200
C283        C  0.29519068  0.09370430  0.96046965    -0.01600
C284        C  0.30980902  0.12222293  0.95594648    -0.01600
C285        C  0.29236037  0.14872340  0.96214444     0.08300
C286        C  0.26330533  0.14317563  0.46006031    -0.01800
Br287      Br  0.23960323  0.17962314  0.45245200    -0.00300
Br288      Br  0.20281563  0.11193451  0.45119907    -0.00400
Br289      Br  0.35447562  0.12542421  0.94436632    -0.00400
Br290      Br  0.32057769  0.05792692  0.95771407    -0.00400
C291        C  0.29856505  0.39099613  0.53684746    -0.01500
C292        C  0.26139316  0.39147671  0.02739303     0.08200
C293        C  0.24309760  0.36561038  0.01862963    -0.01600
C294        C  0.25667444  0.33678267  0.02180527    -0.01600
C295        C  0.28848920  0.33351201  0.03442634     0.08300
C296        C  0.31509051  0.36354429  0.53278262    -0.01800
Br297      Br  0.35961739  0.36152859  0.54572300    -0.00300
Br298      Br  0.32073765  0.42708620  0.55334321    -0.00400
Br299      Br  0.23216846  0.30145399  0.00828270    -0.00400
Br300      Br  0.19929067  0.37003637  0.00271667    -0.00400
C301        C  0.37947902  0.21417608  0.39981897    -0.01500
C302        C  0.36694144  0.24232507  0.41357174     0.08200
C303        C  0.36720406  0.26643873  0.38555145    -0.01600
C304        C  0.36703899  0.25948018  0.34299593    -0.01600
C305        C  0.36320695  0.22868209  0.33137425     0.08300
C306        C  0.37678804  0.20706632  0.35803953    -0.01800
Br307      Br  0.39555542  0.16972648  0.33813947    -0.00300
Br308      Br  0.39835189  0.18395582  0.43661573    -0.00400
Br309      Br  0.38091889  0.29038423  0.30376064    -0.00400
Br310      Br  0.37858575  0.30633526  0.40416280    -0.00400
C311        C  0.36866461  0.19469498  0.09510100    -0.01500
C312        C  0.34572091  0.21654682  0.08316299     0.08200
C313        C  0.31623857  0.21520582  0.10440345    -0.01600
C314        C  0.31625182  0.20368807  0.14487567    -0.01600
C315        C  0.34601467  0.19719398  0.16280614     0.08300
C316        C  0.36970607  0.18621218  0.13698013    -0.01800
Br317      Br  0.39760618  0.15522922  0.15725516    -0.00300
Br318      Br  0.39297954  0.17157230  0.05508646    -0.00400
Br319      Br  0.27698765  0.19918362  0.17589606    -0.00400
Br320      Br  0.27597591  0.22521602  0.07869303    -0.00400
C321        C  0.82519624  0.52721931  0.39448477    -0.01500
C322        C  0.85422432  0.53008844  0.41657796     0.08200
C323        C  0.87634231  0.05215592  0.40205153    -0.01600
C324        C  0.87748622  0.05761563  0.35916708    -0.01600
C325        C  0.85433271  0.54310576  0.33441408     0.08300
C326        C  0.82499005  0.53556163  0.35275814    -0.01800
Br327      Br  0.78548274  0.53653885  0.32169077    -0.00300
Br328      Br  0.78534182  0.51539022  0.42014974    -0.00400
Br329      Br  0.90322522  0.08977366  0.33636350    -0.00400
Br330      Br  0.89790539  0.08008557  0.43927002    -0.00400
C331        C  0.82673538  0.01465246  0.14617800    -0.01500
C332        C  0.85742516  0.51403056  0.16462208     0.08200
C333        C  0.87845881  0.49127712  0.14953310    -0.01600
C334        C  0.87522394  0.48225055  0.10820098    -0.01600
C335        C  0.85061421  0.49481155  0.08545763     0.08300
C336        C  0.82309975  0.00276134  0.10655037    -0.03800
Br337      Br  0.78155047  0.99807331  0.08095926    -0.00300
Br338      Br  0.78802254  0.02587138  0.17525548    -0.00400
Br339      Br  0.89723363  0.44768912  0.08599387    -0.00400
Br340      Br  0.90447549  0.46589317  0.18504268    -0.00400
C341        C  0.75609469  0.15634719  0.23892205    -0.01500
C342        C  0.77195027  0.18381146  0.23106461     0.08200
C343        C  0.80434330  0.18312199  0.21974963    -0.01600
C344        C  0.82103516  0.15547387  0.21887750    -0.01600
C345        C  0.80526130  0.12809393  0.22773769     0.08300
C346        C  0.77256733  0.12875048  0.23708371    -0.01800
Br347      Br  0.75054609  0.09154362  0.24803348    -0.00300
Br348      Br  0.71155316  0.15668899  0.25187754    -0.00400
Br349      Br  0.86592749  0.15494248  0.20826578    -0.00400
Br350      Br  0.82585518  0.22028464  0.20678252    -0.00400
C351        C  0.77383156  0.42910141  0.27509250    -0.01500
C352        C  0.80650503  0.43068010  0.26566604     0.08200
C353        C  0.82153295  0.40442012  0.25063561    -0.01600
C354        C  0.80403645  0.37752007  0.24387541    -0.01600
C355        C  0.77127593  0.37632343  0.25224032     0.08300
C356        C  0.75641301  0.40214381  0.26851559    -0.01800
Br357      Br  0.71166017  0.40060894  0.28021277    -0.00300
Br358      Br  0.75256416  0.46428052  0.29528244    -0.00400
Br359      Br  0.82470862  0.34189743  0.22365602    -0.00400
Br360      Br  0.86646268  0.40512320  0.24054418    -0.00400
C361        C  0.76853201  0.10802023  0.50840329    -0.01500
C362        C  0.79529558  0.10257019  0.02189383     0.08200
C363        C  0.81232542  0.12982660  0.02445315    -0.01600
C364        C  0.79612250  0.15742686  0.02714983    -0.01600
C365        C  0.76273692  0.15796949  0.02800676     0.08300
C366        C  0.75429652  0.13646357  0.50327647    -0.01800
Br367      Br  0.71130696  0.13925788  0.48316931    -0.00300
Br368      Br  0.74616449  0.07223037  0.49108795    -0.00400
Br369      Br  0.81929742  0.19484314  0.02736500    -0.00400
Br370      Br  0.85790917  0.12894936  0.02286315    -0.00400
C371        C  0.82271177  0.38470376  0.47830637    -0.01500
C372        C  0.80098459  0.40750991  0.98530582     0.08200
C373        C  0.76762400  0.40584603  0.98375065    -0.01600
C374        C  0.75204402  0.37766536  0.98521172    -0.01600
C375        C  0.76961314  0.35109437  0.99082260     0.08300
C376        C  0.80721550  0.35717655  0.48744743    -0.01800
Br377      Br  0.83040630  0.32003700  0.48708852    -0.00300
Br378      Br  0.86801833  0.38614151  0.47132178    -0.00400
Br379      Br  0.70667876  0.37523193  0.97951774    -0.00400
Br380      Br  0.74346548  0.44242791  0.98344636    -0.00400
C381        C  0.69950699  0.29618985  0.35777312    -0.01500
C382        C  0.72023179  0.27908859  0.33357866     0.08200
C383        C  0.74837650  0.26851530  0.35161000    -0.01600
C384        C  0.74735412  0.26092010  0.39349553    -0.01600
C385        C  0.71857506  0.26632791  0.41511946     0.08300
C386        C  0.69853025  0.28986997  0.39966417    -0.01800
Br387      Br  0.67466844  0.31820431  0.43431886    -0.00300
Br388      Br  0.67523716  0.32977439  0.33518262    -0.00400
Br389      Br  0.78723174  0.25137572  0.42080608    -0.00400
Br390      Br  0.78879876  0.27120009  0.32254262    -0.00400
C391        C  0.69083404  0.30185253  0.13946453    -0.01500
C392        C  0.69756128  0.27717011  0.16517049     0.08200
C393        C  0.68630524  0.24811653  0.15244128    -0.01600
C394        C  0.68578133  0.24247760  0.11045026    -0.01600
C395        C  0.69594873  0.26617065  0.08474853     0.08300
C396        C  0.68855510  0.29583844  0.09728865    -0.01800
Br397      Br  0.67018668  0.32550147  0.05994638    -0.00300
Br398      Br  0.67800694  0.34048976  0.16113687    -0.00400
Br399      Br  0.66799167  0.20476611  0.08974076    -0.00400
Br400      Br  0.67137840  0.21615342  0.18983304    -0.00400
C401        C  0.71303149  0.25088258  0.96192030     0.30400
C402        C  0.71157075  0.26076799  0.54159743     0.30400
C403        C  0.67791697  0.25150057  0.97611309    -0.05800
C404        C  0.72611758  0.22560058  0.98956630    -0.06600
C405        C  0.72900453  0.27955687  0.97900301    -0.06500
C406        C  0.68006104  0.26069122  0.51799585    -0.05800
C407        C  0.73095235  0.23422966  0.52397963    -0.06600
C408        C  0.73012955  0.28806198  0.52417972    -0.06500
C409        C  0.64844057  0.26036531  0.52939995    -0.31900
N410        N  0.62635088  0.25079565  0.99299456     0.14600
C411        C  0.64717056  0.24633250  0.96088132    -0.31900
H412        H  0.64055720  0.24026270  0.92915944     0.16600
C413        C  0.74718665  0.20997392  0.54037832    -0.30900
N414        N  0.75644663  0.19208459  0.50837693     0.13300
C415        C  0.73893992  0.19748524  0.98412103    -0.30900
C416        C  0.74717178  0.31382595  0.53630594    -0.31100
N417        N  0.75812486  0.32809419  0.50107494     0.13900
H418        H  0.75114093  0.32165248  0.56803060     0.16500
C419        C  0.74678576  0.30328554  0.96306421    -0.31200
H420        H  0.75359792  0.30669893  0.93065855     0.16500
H421        H  0.74309327  0.18617801  0.95459625     0.16500
H422        H  0.63904127  0.26202547  0.56094401     0.16600
H423        H  0.75049665  0.20479727  0.57329609     0.16500
C424        C  0.70764713  0.24132364  0.70867627     0.30400
C425        C  0.71352417  0.23348721  0.79012941     0.30400
C426        C  0.67648295  0.23913426  0.73233544    -0.05800
C427        C  0.72559833  0.21213809  0.72112598    -0.06600
C428        C  0.72765839  0.26590102  0.73015626    -0.06500
C429        C  0.67883755  0.23346443  0.77387746    -0.05800
C430        C  0.72761648  0.20740751  0.76417838    -0.06600
C431        C  0.73086045  0.26133980  0.77191587    -0.06500
C432        C  0.64763665  0.23092841  0.78885387    -0.31900
N433        N  0.62723580  0.23617711  0.75638030     0.14600
C434        C  0.64480156  0.24100097  0.72176239    -0.31900
H435        H  0.63513732  0.24600971  0.69101733     0.16600
C436        C  0.74043917  0.17905612  0.76975565    -0.30900
N437        N  0.74832380  0.16753747  0.73162096     0.13300
C438        C  0.73968889  0.18774604  0.70167573    -0.30900
C439        C  0.74899232  0.28484216  0.78816213    -0.31100
N440        N  0.75660455  0.30408691  0.75685073     0.13900
H441        H  0.75516194  0.28834228  0.82080975     0.16500
C442        C  0.74419356  0.29246741  0.72072997    -0.31200
H443        H  0.74637053  0.30295036  0.69018763     0.16500
H444        H  0.74240325  0.18437940  0.66826529     0.16500
H445        H  0.64053895  0.22748518  0.82114050     0.16600
H446        H  0.74365179  0.16745258  0.79935604     0.16500
C447        C  0.85738332  0.50282473  0.54070076     0.30400
C448        C  0.85297469  0.51186183  0.95856965     0.30400
C449        C  0.84277394  0.47968317  0.51096073    -0.05800
C450        C  0.84043265  0.03279305  0.53085902    -0.06600
C451        C  0.89044807  0.50876300  0.52159417    -0.06500
C452        C  0.83815895  0.48145751  0.97296071    -0.05800
C453        C  0.83649409  0.03624101  0.98523029    -0.06600
C454        C  0.88687088  0.50985949  0.97787027    -0.06500
C455        C  0.82472525  0.45536459  0.95591824    -0.31900
N456        N  0.82193755  0.44011044  0.47908581     0.14600
C457        C  0.83032539  0.45137755  0.51657853    -0.31900
H458        H  0.82721216  0.43965630  0.54609021     0.16600
C459        C  0.82082646  0.06308560  0.97815004    -0.30900
N460        N  0.81626972  0.07738701  0.52115299     0.13300
C461        C  0.82600725  0.05720925  0.55095081    -0.30900
C462        C  0.91834617  0.01036081  0.96485566    -0.31100
N463        N  0.94068231  0.01208633  0.49933713     0.13900
H464        H  0.92676360  0.01154287  0.93284093     0.16500
C465        C  0.92230926  0.00843467  0.53388266    -0.31200
H466        H  0.93129396  0.00457173  0.56528586     0.16500
H467        H  0.82276164  0.05994502  0.58442801     0.16500
H468        H  0.82098283  0.45057595  0.92300126     0.16600
H469        H  0.81631160  0.07348522  0.94795539     0.16500
C470        C  0.85454533  0.48104178  0.70686840     0.30400
C471        C  0.85370825  0.49593621  0.78800869     0.30400
C472        C  0.88785245  0.48731399  0.72597026    -0.05800
C473        C  0.83632578  0.01056305  0.71726998    -0.06600
C474        C  0.84085982  0.45718071  0.73602284    -0.06500
C475        C  0.88739424  0.49422786  0.76848172    -0.05800
C476        C  0.83573846  0.01748232  0.75892303    -0.06600
C477        C  0.84032987  0.46409076  0.77800938    -0.06500
C478        C  0.91875850  0.99836648  0.78106584    -0.31900
N479        N  0.93790715  0.99564240  0.74708660     0.14600
C480        C  0.91933018  0.98954769  0.71316797    -0.31900
H481        H  0.92815118  0.98720577  0.68160189     0.16600
C482        C  0.81895717  0.04378631  0.76394686    -0.30900
N483        N  0.80915007  0.05348396  0.72593110     0.13300
C484        C  0.82009222  0.03373347  0.69674115    -0.30900
C485        C  0.82780741  0.43865396  0.79814246    -0.31100
N486        N  0.82068825  0.41742830  0.76852720     0.13900
H487        H  0.82349373  0.43609728  0.83143094     0.16500
C488        C  0.82904902  0.42857629  0.73067432    -0.31200
H489        H  0.82600065  0.41687357  0.70114388     0.16500
H490        H  0.81670672  0.03628746  0.66327889     0.16500
H491        H  0.92708730  0.00325911  0.81260014     0.16600
H492        H  0.81460058  0.05541335  0.79320405     0.16500
O493        O  0.52819258  0.27329966  0.92720851    -0.72600
O494        O  0.53398648  0.27399639  0.57515250    -0.73600
O495        O  0.58004964  0.27734212  0.49784379    -0.62200
O496        O  0.48455610  0.27196679  0.50523720    -0.70600
O497        O  0.48709640  0.22227279  0.50584890    -0.70100
O498        O  0.58309040  0.22769539  0.49777824    -0.61400
O499        O  0.53642683  0.22534945  0.57517012    -0.73900
O500        O  0.52692219  0.22458453  0.92747751    -0.72700
Cu501      Cu  0.53210196  0.27574740  0.50141807     1.04600
Cu502      Cu  0.53017192  0.22292898  0.00105116     1.04300
C503        C  0.52752347  0.24891996  0.90344176     0.93600
C504        C  0.53502587  0.24961425  0.59906948     0.92800
C505        C  0.59663910  0.25346777  0.49578444     0.84900
C506        C  0.47084869  0.24637224  0.50790791     0.91200
O507        O  0.47964012  0.23119586  0.74529944    -0.72600
O508        O  0.57472210  0.21767498  0.75596237    -0.73600
O509        O  0.52440165  0.22493949  0.82456811    -0.62200
O510        O  0.53060031  0.22507728  0.67744876    -0.70600
O511        O  0.53678605  0.27347715  0.67796945    -0.70100
O512        O  0.53226339  0.27312845  0.82499511    -0.61400
O513        O  0.58216554  0.26696352  0.75508106    -0.73900
O514        O  0.48722196  0.28043261  0.74773150    -0.72700
Cu515      Cu  0.52703657  0.22322277  0.75089096     1.04600
Cu516      Cu  0.53487062  0.27496663  0.75153308     1.04300
C517        C  0.46851938  0.25787661  0.74400836     0.93600
C518        C  0.59342542  0.24036546  0.75714640     0.92800
C519        C  0.52793843  0.24897514  0.84868574     0.84900
C520        C  0.53421746  0.24938325  0.65381713     0.91200
O521        O  0.98790638  0.48501089  0.50017896    -0.72600
O522        O  0.08360700  0.48096725  0.49567656    -0.73600
O523        O  0.03678538  0.48388230  0.57224533    -0.62200
O524        O  0.03382661  0.48365650  0.92394895    -0.70600
O525        O  0.03458082  0.03243500  0.92418908    -0.70100
O526        O  0.03792836  0.03265285  0.57100092    -0.61400
O527        O  0.08651634  0.03091359  0.49713560    -0.73900
O528        O  0.98762242  0.03265576  0.99926710    -0.72700
Cu529      Cu  0.03568889  0.48159958  0.49845240     1.04600
Cu530      Cu  0.03608781  0.03342756  0.99772509     1.04300
C531        C  0.97457870  0.01052705  0.49838794     0.93600
C532        C  0.10022426  0.00549688  0.49464604     0.92800
C533        C  0.03716892  0.00846215  0.59534416     0.84900
C534        C  0.03400254  0.00829046  0.89995628     0.91200
O535        O  0.08611057  0.49192772  0.75182340    -0.72600
O536        O  0.99065864  0.47720647  0.74670110    -0.73600
O537        O  0.03985782  0.48474570  0.67508710    -0.62200
O538        O  0.03706235  0.48453959  0.82204507    -0.70600
O539        O  0.03092284  0.03294308  0.82155558    -0.70100
O540        O  0.03238863  0.03292156  0.67397369    -0.61400
O541        O  0.98341979  0.02677678  0.74730567    -0.73900
O542        O  0.07879947  0.04089328  0.74936197    -0.72700
Cu543      Cu  0.03868175  0.48313862  0.74879963     1.04600
Cu544      Cu  0.03107367  0.03486956  0.74791547     1.04300
C545        C  0.09740878  0.51871747  0.75247420     0.93600
C546        C  0.97184871  0.00012566  0.74670889     0.92800
C547        C  0.03641865  0.00876430  0.65027170     0.84900
C548        C  0.03386404  0.00866507  0.84535564     0.91200
C549        C  0.35077831  0.23453584  0.54016268     0.30400
C550        C  0.35232723  0.25144265  0.96282063     0.30400
C551        C  0.33531474  0.21119177  0.51176208    -0.05800
C552        C  0.33733988  0.26501372  0.52450584    -0.06600
C553        C  0.38570321  0.23718466  0.52533818    -0.06500
C554        C  0.33553675  0.22054063  0.96860035    -0.05800
C555        C  0.33228415  0.27152557  0.99147083    -0.06600
C556        C  0.38372772  0.24977207  0.98665434    -0.06500
C557        C  0.31898279  0.19892103  0.94502850    -0.31900
N558        N  0.31061444  0.17391692  0.47816371     0.14600
C559        C  0.31885570  0.18438337  0.51667326    -0.31900
H560        H  0.31375831  0.17304048  0.54600303     0.16600
C561        C  0.31464971  0.29730067  0.98785160    -0.30900
N562        N  0.31612904  0.30972551  0.51204482     0.13300
C563        C  0.32386968  0.29002026  0.54271183    -0.30900
C564        C  0.41485445  0.25613318  0.97681434    -0.31100
N565        N  0.43690146  0.24475529  0.50841975     0.13900
H566        H  0.42377838  0.26411143  0.94688581     0.16500
C567        C  0.41677934  0.23851843  0.54091753    -0.31200
H568        H  0.42413404  0.23579131  0.57323664     0.16500
H569        H  0.31940086  0.29354075  0.57578761     0.16500
H570        H  0.31465112  0.19946184  0.91149732     0.16600
H571        H  0.30991505  0.30976221  0.95932354     0.16500
C572        C  0.34883525  0.25095427  0.70884973     0.30400
C573        C  0.35445845  0.26573839  0.78987113     0.30400
C574        C  0.38335473  0.25653685  0.72389481    -0.05800
C575        C  0.33275863  0.28128917  0.72119655    -0.06600
C576        C  0.33472207  0.22832726  0.73951871    -0.06500
C577        C  0.38545090  0.26507994  0.76504754    -0.05800
C578        C  0.33479920  0.28850866  0.76390869    -0.06600
C579        C  0.33642901  0.23595842  0.78068080    -0.06500
C580        C  0.41698230  0.26967539  0.77503323    -0.31900
N581        N  0.43477921  0.26245936  0.74150144     0.14600
C582        C  0.41464738  0.25505718  0.70946553    -0.31900
H583        H  0.42225438  0.24802445  0.67861181     0.16600
C584        C  0.31844584  0.31516971  0.76922500    -0.30900
N585        N  0.30869912  0.32540807  0.73108606     0.13300
C586        C  0.31757330  0.30511433  0.70147005    -0.30900
C587        C  0.32048817  0.21331379  0.80290256    -0.31100
N588        N  0.31009482  0.19207312  0.77531175     0.13900
H589        H  0.31684430  0.21235646  0.83652822     0.16500
C590        C  0.31861577  0.20122437  0.73639297    -0.31200
H591        H  0.31306555  0.18917891  0.70779601     0.16500
H592        H  0.31322589  0.30750422  0.66814495     0.16500
H593        H  0.42641313  0.27527471  0.80572400     0.16600
H594        H  0.31380616  0.32652244  0.79850514     0.16500
C595        C  0.21610052  0.48497460  0.95690094     0.30400
C596        C  0.21651137  0.49817486  0.53466171     0.30400
C597        C  0.22796384  0.46016779  0.98503253    -0.05800
C598        C  0.23562031  0.01338136  0.97091876    -0.06600
C599        C  0.18232851  0.49283383  0.97315651    -0.06500
C600        C  0.22985178  0.46687005  0.52580874    -0.05800
C601        C  0.23518498  0.01935533  0.50605115    -0.06600
C602        C  0.18362741  0.49950142  0.51375692    -0.06500
C603        C  0.24384202  0.44321093  0.54782673    -0.31900
N604        N  0.25066661  0.42087876  0.52013427     0.14600
C605        C  0.24107776  0.43187784  0.98017194    -0.31900
H606        H  0.24487635  0.42015060  0.95084029     0.16600
C607        C  0.24325512  0.04932902  0.50857900    -0.30900
N608        N  0.25004733  0.05966994  0.46971344     0.13300
C609        C  0.24453521  0.03960128  0.95017347    -0.30900
C610        C  0.15361980  0.50869235  0.52507105    -0.31100
N611        N  0.13288411  0.50658209  0.99105838     0.13900
H612        H  0.14629238  0.51684650  0.55553703     0.16500
C613        C  0.15122697  0.49638001  0.95884888    -0.31200
H614        H  0.14242687  0.49171929  0.92761366     0.16500
H615        H  0.24687579  0.04251200  0.91656562     0.16500
H616        H  0.24864269  0.44238494  0.58119703     0.16600
H617        H  0.24396451  0.06286393  0.53675723     0.16500
C618        C  0.21310814  0.51716721  0.70987418     0.30400
C619        C  0.21392954  0.50230277  0.79071998     0.30400
C620        C  0.22614668  0.48552028  0.72046647    -0.05800
C621        C  0.23309459  0.03829054  0.73773371    -0.06600
C622        C  0.18093352  0.52043519  0.73255909    -0.06500
C623        C  0.22551351  0.47808510  0.76129536    -0.05800
C624        C  0.23359914  0.03047576  0.78020270    -0.06600
C625        C  0.18091052  0.51159306  0.77405552    -0.06500
C626        C  0.23801354  0.44953146  0.76577994    -0.31900
N627        N  0.24654928  0.43912005  0.72767299     0.14600
C628        C  0.23963102  0.46107825  0.69929544    -0.31900
H629        H  0.24410879  0.45947814  0.66594200     0.16600
C630        C  0.24135374  0.05630628  0.80246017    -0.30900
N631        N  0.24647133  0.07917234  0.77499174     0.13300
C632        C  0.23913501  0.06894440  0.73607320    -0.30900
C633        C  0.14977662  0.51381118  0.78786270    -0.31100
N634        N  0.13120150  0.52336502  0.75554741     0.13900
H635        H  0.14089137  0.50734246  0.81843234     0.16500
C636        C  0.15035598  0.52915599  0.72232304    -0.31200
H637        H  0.14209455  0.53566769  0.69142522     0.16500
H638        H  0.23803395  0.08293439  0.70832855     0.16500
H639        H  0.24128489  0.43734851  0.79491156     0.16600
H640        H  0.24233204  0.05846944  0.83630917     0.16500
C641        C  0.24957685  0.98134754  0.89368347    -0.01500
C642        C  0.22041455  0.47544402  0.91362756     0.08200
C643        C  0.19559268  0.46252206  0.89093135    -0.01600
C644        C  0.19389846  0.46964839  0.84877005    -0.01600
C645        C  0.21711382  0.49000611  0.83292407     0.08300
C646        C  0.24772999  0.98934006  0.85202491    -0.01800
Br647      Br  0.28717679  0.99514982  0.82151469    -0.00300
Br648      Br  0.29007172  0.97867187  0.92218541    -0.00400
Br649      Br  0.16464283  0.44708091  0.81372394    -0.00400
Br650      Br  0.16886512  0.43186394  0.91571927    -0.00400
C651        C  0.18957685  0.49722591  0.64503384    -0.01500
C652        C  0.21208852  0.51786977  0.66358877     0.08200
C653        C  0.24039875  0.02497106  0.64150430    -0.01600
C654        C  0.24300416  0.01623264  0.59994261    -0.01600
C655        C  0.21637607  0.50377582  0.57966533     0.08300
C656        C  0.19295034  0.48926260  0.60364777    -0.01800
Br657      Br  0.16980229  0.45364917  0.58274114    -0.00300
Br658      Br  0.15987676  0.47109056  0.67614643    -0.00400
Br659      Br  0.28512078  0.01262261  0.57514466    -0.00400
Br660      Br  0.27932336  0.04035841  0.66649428    -0.00400
C661        C  0.26014903  0.16279877  0.77219960    -0.01500
C662        C  0.29234407  0.16480545  0.78390126     0.08200
C663        C  0.30795659  0.13868788  0.79789997    -0.01600
C664        C  0.29206949  0.11059733  0.79787491    -0.01600
C665        C  0.26034446  0.10835094  0.78373478     0.08300
C666        C  0.24416614  0.13479149  0.77235999    -0.01800
Br667      Br  0.20015651  0.13232149  0.75636275    -0.00300
Br668      Br  0.23856122  0.19853141  0.75411075    -0.00400
Br669      Br  0.31492802  0.07479861  0.81313348    -0.00400
Br670      Br  0.35200284  0.14091829  0.81330238    -0.00400
C671        C  0.25939521  0.35536818  0.73138273    -0.01500
C672        C  0.29222441  0.35346769  0.72395143     0.08200
C673        C  0.30917319  0.37979877  0.71296129    -0.01600
C674        C  0.29368618  0.40798185  0.71132862    -0.01600
C675        C  0.26107819  0.41007969  0.72078456     0.08300
C676        C  0.24393066  0.38347169  0.72993803    -0.01800
Br677      Br  0.19923443  0.38588797  0.74159725    -0.00300
Br678      Br  0.23608356  0.31925952  0.74477775    -0.00400
Br679      Br  0.31748253  0.44413715  0.69965737    -0.00400
Br680      Br  0.35403852  0.37717747  0.70281086    -0.00400
C681        C  0.24476165  0.11782653  0.97465064    -0.01500
C682        C  0.26575293  0.08815236  0.46255094     0.08200
C683        C  0.29871646  0.09024679  0.46926097    -0.01600
C684        C  0.31357794  0.11853164  0.47389919    -0.01600
C685        C  0.29588353  0.14513837  0.46976155     0.08300
C686        C  0.25956757  0.14637573  0.97038817    -0.01800
Br687      Br  0.23562366  0.18266654  0.97771392    -0.00300
Br688      Br  0.20030587  0.11483544  0.98764630    -0.00400
Br689      Br  0.35789764  0.12090832  0.48808153    -0.00400
Br690      Br  0.32292583  0.05387482  0.47479266    -0.00400
C691        C  0.29241876  0.38811533  0.04340869    -0.01500
C692        C  0.26589251  0.39229857  0.52745780     0.08200
C693        C  0.24949117  0.36542702  0.51776076    -0.01600
C694        C  0.26605442  0.33817437  0.51319705    -0.01600
C695        C  0.29914008  0.33742783  0.51869104     0.08300
C696        C  0.30582140  0.35914926  0.04716868    -0.01800
Br697      Br  0.34845271  0.35431433  0.06769002    -0.00300
Br698      Br  0.31713362  0.42326116  0.05749016    -0.00400
Br699      Br  0.24370038  0.30151688  0.49993806    -0.00400
Br700      Br  0.20411105  0.36624803  0.51136139    -0.00400
C701        C  0.37455643  0.23621276  0.89473963    -0.01500
C702        C  0.35972067  0.25890806  0.91877689     0.08200
C703        C  0.36123684  0.28873760  0.90327538    -0.01600
C704        C  0.36177358  0.29276488  0.85973108    -0.01600
C705        C  0.36307514  0.26686584  0.83482310     0.08300
C706        C  0.37698673  0.24054302  0.85228289    -0.01800
Br707      Br  0.39768407  0.20899239  0.81961279    -0.00300
Br708      Br  0.39357587  0.19984926  0.91836220    -0.00400
Br709      Br  0.37248249  0.33147599  0.83614201    -0.00400
Br710      Br  0.37406466  0.32180460  0.93898916    -0.00400
C711        C  0.36563571  0.21075964  0.60835869    -0.01500
C712        C  0.34410333  0.22703038  0.58409369     0.08200
C713        C  0.31506387  0.23510175  0.60242889    -0.01600
C714        C  0.31536777  0.24149342  0.64494052    -0.01600
C715        C  0.34465783  0.23861888  0.66630390     0.08300
C716        C  0.36568304  0.21625579  0.65114743    -0.01800
Br717      Br  0.38968415  0.18972524  0.68745418    -0.00300
Br718      Br  0.38938021  0.17786828  0.58462217    -0.00400
Br719      Br  0.27551208  0.24908837  0.67290459    -0.00400
Br720      Br  0.27579772  0.23622636  0.57077696    -0.00400
C721        C  0.81976982  0.51043641  0.89434075    -0.01500
C722        C  0.84858614  0.51847423  0.91380647     0.08200
C723        C  0.87090514  0.03499273  0.89026674    -0.01600
C724        C  0.87079383  0.03027114  0.84716735    -0.01600
C725        C  0.85018049  0.50722994  0.83117611     0.08300
C726        C  0.82080827  0.50333979  0.85219301    -0.01800
Br727      Br  0.78144261  0.49219933  0.82442996    -0.00300
Br728      Br  0.77957355  0.51028636  0.92397629    -0.00400
Br729      Br  0.89122918  0.05984823  0.81132717    -0.00400
Br730      Br  0.89521772  0.06768588  0.91446135    -0.00400
C731        C  0.82252926  0.97693246  0.64243830    -0.01500
C732        C  0.85082882  0.47110136  0.66313317     0.08200
C733        C  0.87613693  0.46028994  0.63991247    -0.01600
C734        C  0.87750214  0.46859141  0.59792587    -0.01600
C735        C  0.85481124  0.48992304  0.58327712     0.08300
C736        C  0.82466943  0.98870752  0.60242120    -0.03800
Br737      Br  0.78517130  0.99839897  0.57409878    -0.00300
Br738      Br  0.78185507  0.97107967  0.66948880    -0.00400
Br739      Br  0.90303911  0.44397175  0.56103761    -0.00400
Br740      Br  0.90161279  0.42815164  0.66252276    -0.00400
C741        C  0.74536535  0.11190230  0.73514438    -0.01500
C742        C  0.76226804  0.13829356  0.72446345     0.08200
C743        C  0.79349851  0.13576638  0.70892106    -0.01600
C744        C  0.80814490  0.10728937  0.70617001    -0.01600
C745        C  0.79195490  0.08116512  0.71949031     0.08300
C746        C  0.76025266  0.08355265  0.73320006    -0.01800
Br747      Br  0.73767646  0.04785048  0.75042298    -0.00300
Br748      Br  0.70169675  0.11489139  0.75230246    -0.00400
Br749      Br  0.85133198  0.10392985  0.68733463    -0.00400
Br750      Br  0.81706882  0.17156590  0.69473540    -0.00400
C751        C  0.77111373  0.38797545  0.76393004    -0.01500
C752        C  0.80372951  0.38929215  0.77329543     0.08200
C753        C  0.82036673  0.36228500  0.77948504    -0.01600
C754        C  0.80476494  0.33417167  0.77474945    -0.01600
C755        C  0.77250929  0.33284392  0.76265735     0.08300
C756        C  0.75550443  0.35999498  0.75922045    -0.01800
Br757      Br  0.71045651  0.35906303  0.75075074    -0.00300
Br758      Br  0.74821452  0.42493222  0.75641907    -0.00400
Br759      Br  0.82754728  0.29741270  0.78424791    -0.00400
Br760      Br  0.86488218  0.36429470  0.79256297    -0.00400
C761        C  0.76187623  0.10298427  0.02397180    -0.01500
C762        C  0.79930607  0.10543385  0.52559865     0.08200
C763        C  0.81534860  0.13176751  0.53852822    -0.01600
C764        C  0.80151513  0.16038731  0.53214350    -0.01600
C765        C  0.77109536  0.16291432  0.51373848     0.08300
C766        C  0.74566802  0.13062276  0.02726961    -0.01800
Br767      Br  0.70005524  0.13160277  0.02929555    -0.00300
Br768      Br  0.73856436  0.06572219  0.02044112    -0.00400
Br769      Br  0.82495086  0.19634972  0.54606891    -0.00400
Br770      Br  0.85693138  0.12843185  0.56300074    -0.00400
C771        C  0.81854803  0.38087634  0.99026271    -0.01500
C772        C  0.80540351  0.41168694  0.47603536     0.08200
C773        C  0.77244983  0.41076831  0.48338774    -0.01600
C774        C  0.75713221  0.38342323  0.49389486    -0.01600
C775        C  0.77454455  0.35655109  0.49681337     0.08300
C776        C  0.80288862  0.35278750  0.99331158    -0.01800
Br777      Br  0.82652584  0.31645797  0.00217625    -0.00300
Br778      Br  0.86399738  0.38341412  0.99469899    -0.00400
Br779      Br  0.71214892  0.38242695  0.50384401    -0.00400
Br780      Br  0.74888753  0.44765868  0.48124353    -0.00400
C781        C  0.69694774  0.26231928  0.85105148    -0.01500
C782        C  0.71536503  0.23766909  0.83511555     0.08200
C783        C  0.74299630  0.22922263  0.85754504    -0.01600
C784        C  0.74437945  0.23639056  0.89967619    -0.01600
C785        C  0.71749358  0.24969607  0.91742223     0.08300
C786        C  0.69851978  0.26846423  0.89280152    -0.01800
Br787      Br  0.67741135  0.30439300  0.91455407    -0.00300
Br788      Br  0.67490078  0.29285482  0.81708815    -0.00400
Br789      Br  0.78495951  0.23635199  0.92874626    -0.00400
Br790      Br  0.78198445  0.21640432  0.83103744    -0.00400
C791        C  0.69302350  0.27626977  0.65204101    -0.01500
C792        C  0.69991181  0.24678759  0.66573489     0.08200
C793        C  0.69040131  0.22285435  0.64015985    -0.01600
C794        C  0.69189948  0.22801806  0.59798382    -0.01600
C795        C  0.70342343  0.25690415  0.58483374     0.08300
C796        C  0.69610075  0.28184136  0.60987721    -0.01800
Br797      Br  0.68307716  0.32037878  0.58741015    -0.00300
Br798      Br  0.67349514  0.30613728  0.68760960    -0.00400
Br799      Br  0.67549869  0.19650742  0.56095776    -0.00400
Br800      Br  0.67129713  0.18583217  0.66127351    -0.00400
C801        C  0.71637035  0.75985996  0.45969170     0.30400
C802        C  0.70552611  0.76001367  0.04273834     0.30400
C803        C  0.68200497  0.75774820  0.47618514    -0.05800
C804        C  0.73214536  0.73256361  0.48128737    -0.06600
C805        C  0.73209733  0.78707678  0.48167866    -0.06500
C806        C  0.67505462  0.75783681  0.01770900    -0.05800
C807        C  0.72358572  0.73050710  0.03224979    -0.06600
C808        C  0.72575025  0.78416160  0.02096840    -0.06500
C809        C  0.64342777  0.75810273  0.02774224    -0.31900
N810        N  0.63074214  0.75576295  0.49509844     0.14600
C811        C  0.65086701  0.75363787  0.46173771    -0.31900
H812        H  0.64351349  0.75015345  0.42954739     0.16600
C813        C  0.73753153  0.70594087  0.05209645    -0.30900
N814        N  0.74641871  0.68580858  0.02216167     0.13300
C815        C  0.74690071  0.70537130  0.47221167    -0.30900
C816        C  0.74189105  0.81059251  0.03071681    -0.31100
N817        N  0.75436571  0.82222535  0.99485488     0.13900
H818        H  0.74372781  0.82107574  0.06127134     0.16500
C819        C  0.74930567  0.81166379  0.46801301    -0.31200
H820        H  0.75479384  0.81749231  0.43580833     0.16500
H821        H  0.75039498  0.69584456  0.44131918     0.16500
H822        H  0.63319209  0.76236259  0.05833068     0.16600
H823        H  0.74044990  0.70268587  0.08554510     0.16500
C824        C  0.70721704  0.78118082  0.20807066     0.30400
C825        C  0.71505890  0.77787163  0.28950838     0.30400
C826        C  0.67644786  0.78029665  0.23340049    -0.05800
C827        C  0.72794454  0.75443999  0.22303598    -0.06600
C828        C  0.72564069  0.80848576  0.22610207    -0.06500
C829        C  0.67987619  0.77608186  0.27518146    -0.05800
C830        C  0.73038479  0.75166530  0.26551299    -0.06600
C831        C  0.72895716  0.80644433  0.26891653    -0.06500
C832        C  0.64932246  0.76947345  0.29043397    -0.31900
N833        N  0.62792847  0.77184367  0.25822916     0.14600
C834        C  0.64446871  0.77899660  0.22345521    -0.31900
H835        H  0.63424400  0.78049688  0.19229739     0.16600
C836        C  0.74614884  0.72479042  0.27345724    -0.30900
N837        N  0.75514281  0.71229956  0.23638745     0.13300
C838        C  0.74441730  0.73053600  0.20520373    -0.30900
C839        C  0.74592857  0.83115374  0.28279784    -0.31100
N840        N  0.75369443  0.84848008  0.24939354     0.13900
H841        H  0.75248598  0.83605467  0.31496186     0.16500
C842        C  0.74208706  0.83459910  0.21421486    -0.31200
H843        H  0.74553656  0.84279276  0.18255047     0.16500
H844        H  0.74716337  0.72605624  0.17206042     0.16500
H845        H  0.64333656  0.76299312  0.32221348     0.16600
H846        H  0.75088281  0.71504210  0.30399234     0.16500
C847        C  0.85397614  0.00211130  0.04106084     0.30400
C848        C  0.85696791  0.01786856  0.45953059     0.30400
C849        C  0.83863747  0.97733115  0.01537447    -0.05800
C850        C  0.83735925  0.53130495  0.02726872    -0.06600
C851        C  0.88726576  0.00600807  0.02107837    -0.06500
C852        C  0.84272709  0.98634852  0.46925049    -0.05800
C853        C  0.83963389  0.53965799  0.48894888    -0.06600
C854        C  0.89039606  0.01527175  0.47901564    -0.06500
C855        C  0.82987847  0.96078619  0.44949223    -0.31900
N856        N  0.81686290  0.93651335  0.98773077     0.14600
C857        C  0.82556774  0.94958550  0.02419459    -0.31900
H858        H  0.82262784  0.93953474  0.05494733     0.16600
C859        C  0.82487029  0.56685544  0.48361168    -0.30900
N860        N  0.81227675  0.57459284  0.01497176     0.13300
C861        C  0.82268478  0.55591241  0.04572920    -0.30900
C862        C  0.92133664  0.51616566  0.46578000    -0.31100
N863        N  0.93754424  0.50793383  0.99930626     0.13900
H864        H  0.92963926  0.51918334  0.43390244     0.16500
C865        C  0.91876436  0.50587269  0.03375546    -0.31200
H866        H  0.92759368  0.50438179  0.06557699     0.16500
H867        H  0.81974448  0.56010983  0.07885499     0.16500
H868        H  0.82573815  0.95789494  0.41619701     0.16600
H869        H  0.82105542  0.57845369  0.45414494     0.16500
C870        C  0.86087694  0.02496571  0.20794800     0.30400
C871        C  0.85998894  0.03594575  0.29008383     0.30400
C872        C  0.89406436  0.02932864  0.22778329    -0.05800
C873        C  0.84458595  0.55506436  0.22012816    -0.06600
C874        C  0.84526389  0.00056187  0.23506981    -0.06500
C875        C  0.89390538  0.03370137  0.27097344    -0.05800
C876        C  0.84384671  0.56001676  0.26259554    -0.06600
C877        C  0.84504972  0.00530689  0.27705511    -0.06500
C878        C  0.92492681  0.53138073  0.28421013    -0.31900
N879        N  0.94388300  0.52817370  0.24987298     0.14600
C880        C  0.92507049  0.52778347  0.21535236    -0.31900
H881        H  0.93352755  0.52435619  0.18366091     0.16600
C882        C  0.83036366  0.58783259  0.26950421    -0.30900
N883        N  0.82257712  0.60033879  0.23209726     0.13300
C884        C  0.83177285  0.58080795  0.20137040    -0.30900
C885        C  0.83154276  0.97923738  0.29499541    -0.31100
N886        N  0.82328550  0.95959275  0.26373033     0.13900
H887        H  0.82793819  0.97497933  0.32807156     0.16500
C888        C  0.83171959  0.97266817  0.22718385    -0.31200
H889        H  0.82823308  0.96239477  0.19668056     0.16500
H890        H  0.82881304  0.58469336  0.16808346     0.16500
H891        H  0.93325859  0.53078033  0.31634887     0.16600
H892        H  0.82631057  0.59821188  0.29976694     0.16500
O893        O  0.53013282  0.77392087  0.42768035    -0.72600
O894        O  0.53213096  0.77371650  0.07460586    -0.73600
O895        O  0.57759980  0.77439723  0.99737087    -0.62200
O896        O  0.48248288  0.77389415  0.00428271    -0.70600
O897        O  0.48249677  0.72417163  0.00741721    -0.70100
O898        O  0.57818259  0.72464309  0.99530997    -0.61400
O899        O  0.53415994  0.72505426  0.07488292    -0.73900
O900        O  0.53310579  0.72533867  0.42802734    -0.72700
Cu901      Cu  0.53016865  0.77533490  0.00093794     1.04600
Cu902      Cu  0.53513177  0.72382184  0.50177767     1.04300
C903        C  0.53130890  0.74953275  0.40384375     0.93600
C904        C  0.53364522  0.74944534  0.09866133     0.92800
C905        C  0.59281706  0.74983947  0.99382172     0.84900
C906        C  0.46748411  0.74903937  0.00823884     0.91200
O907        O  0.49214391  0.71355417  0.24593508    -0.72600
O908        O  0.58588841  0.73642766  0.25593266    -0.73600
O909        O  0.53651539  0.72544947  0.32506378    -0.62200
O910        O  0.54058990  0.72600493  0.17750319    -0.70600
O911        O  0.52835452  0.77323036  0.17723260    -0.70100
O912        O  0.52535009  0.77288325  0.32461184    -0.61400
O913        O  0.57365762  0.78466904  0.25421836    -0.73900
O914        O  0.47964265  0.76172822  0.24671899    -0.72700
Cu915      Cu  0.53920828  0.72394004  0.25118876     1.04600
Cu916      Cu  0.52633356  0.77458113  0.25074981     1.04300
C917        C  0.47118283  0.73409983  0.24330184     0.93600
C918        C  0.59456166  0.76403288  0.25726037     0.92800
C919        C  0.53094904  0.74926538  0.34886123     0.84900
C920        C  0.53434968  0.74957399  0.15344633     0.91200
O921        O  0.98660830  0.98293394  0.99845216    -0.72600
O922        O  0.08317254  0.98205194  0.99359772    -0.73600
O923        O  0.03648455  0.98224118  0.07086924    -0.62200
O924        O  0.03511881  0.98277378  0.42458765    -0.70600
O925        O  0.03916426  0.53129236  0.42429198    -0.70100
O926        O  0.03762922  0.53085476  0.07225444    -0.61400
O927        O  0.08407067  0.53195448  0.99582184    -0.73900
O928        O  0.99075411  0.53470410  0.49702848    -0.72700
Cu929      Cu  0.03495975  0.98123258  0.99669685     1.04600
Cu930      Cu  0.03859025  0.53380518  0.49765499     1.04300
C931        C  0.97181132  0.50766829  0.99932927     0.93600
C932        C  0.09874320  0.50698435  0.99307735     0.92800
C933        C  0.03744567  0.50630777  0.09595028     0.84900
C934        C  0.03719721  0.50677664  0.40092378     0.91200
O935        O  0.07880217  0.97003975  0.25080353    -0.72600
O936        O  0.98563971  0.99318909  0.24838991    -0.73600
O937        O  0.03274292  0.98215851  0.17464333    -0.62200
O938        O  0.03178900  0.98258707  0.32229053    -0.70600
O939        O  0.04452414  0.52977268  0.32239803    -0.70100
O940        O  0.04442178  0.52953877  0.17514862    -0.61400
O941        O  0.99826904  0.54128060  0.24949448    -0.73900
O942        O  0.09211164  0.51834123  0.24979661    -0.72700
Cu943      Cu  0.03186893  0.98054063  0.24888495     1.04600
Cu944      Cu  0.04534125  0.53115677  0.24908597     1.04300
C945        C  0.10034044  0.99038823  0.25137536     0.93600
C946        C  0.97709519  0.52057589  0.24978869     0.92800
C947        C  0.03824337  0.50591980  0.15109003     0.84900
C948        C  0.03778188  0.50631457  0.34641205     0.91200
C949        C  0.34884456  0.73183789  0.04214886     0.30400
C950        C  0.35766631  0.74475033  0.45796919     0.30400
C951        C  0.33519727  0.71060130  0.00914342    -0.05800
C952        C  0.33126092  0.76210582  0.03327408    -0.06600
C953        C  0.38280613  0.73950433  0.02711634    -0.06500
C954        C  0.33771268  0.71683107  0.47004754    -0.05800
C955        C  0.33973687  0.77020999  0.48133941    -0.06600
C956        C  0.38835194  0.74325667  0.48310234    -0.06500
C957        C  0.32167894  0.69369217  0.44943078    -0.31900
N958        N  0.30938212  0.67642559  0.97124822     0.14600
C959        C  0.31910200  0.68354571  0.01038343    -0.31900
H960        H  0.31422457  0.67010756  0.03799720     0.16600
C961        C  0.32491333  0.79770694  0.47438692    -0.30900
N962        N  0.30497907  0.80548059  0.02633099     0.13300
C963        C  0.31498137  0.78452188  0.05468586    -0.30900
C964        C  0.41958377  0.74864011  0.47331474    -0.31100
N965        N  0.43348533  0.74909843  0.01002241     0.13900
H966        H  0.42908996  0.75411108  0.44261656     0.16500
C967        C  0.41413498  0.73940544  0.04157731    -0.31200
H968        H  0.42229160  0.73225036  0.07220275     0.16500
H969        H  0.31092521  0.78563680  0.08816038     0.16500
H970        H  0.31914369  0.69093021  0.41581839     0.16600
H971        H  0.32037456  0.80824227  0.44441588     0.16500
C972        C  0.35335115  0.70575317  0.20620919     0.30400
C973        C  0.35707481  0.71988737  0.28745572     0.30400
C974        C  0.38784066  0.71265023  0.22203081    -0.05800
C975        C  0.33551205  0.73475445  0.21933391    -0.06600
C976        C  0.34085547  0.68161277  0.23631412    -0.06500
C977        C  0.38867379  0.71968242  0.26404018    -0.05800
C978        C  0.33611477  0.74083749  0.26159786    -0.06600
C979        C  0.34165259  0.68875020  0.27826724    -0.06500
C980        C  0.41911043  0.72766973  0.27528008    -0.31900
N981        N  0.43786940  0.72614594  0.24138861     0.14600
C982        C  0.41925362  0.71732313  0.20809832    -0.31900
H983        H  0.42759883  0.71550933  0.17612701     0.16600
C984        C  0.31725852  0.76558544  0.26849676    -0.30900
N985        N  0.30738494  0.77629882  0.23093097     0.13300
C986        C  0.31859044  0.75791228  0.20047087    -0.30900
C987        C  0.32626139  0.66508329  0.29909413    -0.31100
N988        N  0.31749078  0.64380579  0.27031651     0.13900
H989        H  0.32195687  0.66343026  0.33250102     0.16500
C990        C  0.32638227  0.65387971  0.23195178    -0.31200
H991        H  0.32203858  0.64206607  0.20277645     0.16500
H992        H  0.31483283  0.76142022  0.16723754     0.16500
H993        H  0.42703157  0.73485346  0.30607150     0.16600
H994        H  0.31221424  0.77598806  0.29843421     0.16500
C995        C  0.21553694  0.98204939  0.45483470     0.30400
C996        C  0.21336653  0.99734782  0.03877103     0.30400
C997        C  0.22878384  0.95873692  0.48533124    -0.05800
C998        C  0.23476087  0.51127656  0.46346110    -0.06600
C999        C  0.18282377  0.99065948  0.47273369    -0.06500
C1000       C  0.22760276  0.96651572  0.02662464    -0.05800
C1001       C  0.23372304  0.52019330  0.01313743    -0.06600
C1002       C  0.18192937  0.00048457  0.01506399    -0.06500
C1003       C  0.24076168  0.94192741  0.04752277    -0.31900
N1004       N  0.24907548  0.92091632  0.01889443     0.14600
C1005       C  0.24162883  0.93032186  0.48196993    -0.31900
H1006       H  0.24450977  0.91747184  0.45344256     0.16600
C1007       C  0.24001014  0.55092776  0.01624528    -0.30900
N1008       N  0.24865025  0.56196150  0.97807889     0.13300
C1009       C  0.24382724  0.53706759  0.44128945    -0.30900
C1010       C  0.15185923  0.01041994  0.02469001    -0.31100
N1011       N  0.13412956  0.00414272  0.49232722     0.13900
H1012       H  0.14367057  0.01753790  0.05529324     0.16500
C1013       C  0.15161570  0.99396453  0.45950689    -0.31200
H1014       H  0.14218178  0.98882078  0.42870831     0.16500
H1015       H  0.24528821  0.53936012  0.40750011     0.16500
H1016       H  0.24372090  0.93924268  0.08100209     0.16600
H1017       H  0.23806157  0.56439052  0.04432287     0.16500
C1018       C  0.21479452  0.96714148  0.20995482     0.30400
C1019       C  0.21369416  0.95510109  0.29157366     0.30400
C1020       C  0.22668168  0.93583627  0.22206776    -0.05800
C1021       C  0.23421101  0.48971408  0.23711428    -0.06600
C1022       C  0.18176550  0.96983844  0.23044760    -0.06500
C1023       C  0.22560719  0.92977845  0.26384248    -0.05800
C1024       C  0.23386595  0.48342658  0.27930881    -0.06600
C1025       C  0.18060798  0.96314331  0.27285357    -0.06500
C1026       C  0.23663357  0.90093431  0.26995291    -0.31900
N1027       N  0.24468472  0.88924729  0.23222614     0.14600
C1028       C  0.23873724  0.91048743  0.20243606    -0.31900
H1029       H  0.24308301  0.90780504  0.16916348     0.16600
C1030       C  0.24593385  0.50888197  0.29963482    -0.30900
N1031       N  0.25419812  0.52978405  0.27032382     0.13300
C1032       C  0.24592877  0.51873597  0.23226242    -0.30900
C1033       C  0.15019361  0.97115263  0.28609821    -0.31100
N1034       N  0.13341102  0.98190859  0.25259597     0.13900
H1035       H  0.14129670  0.97034342  0.31790463     0.16500
C1036       C  0.15287702  0.98198684  0.21889457    -0.31200
H1037       H  0.14648951  0.99052573  0.18819569     0.16500
H1038       H  0.24760079  0.53137027  0.20323048     0.16500
H1039       H  0.23927828  0.88950008  0.29975662     0.16600
H1040       H  0.24762908  0.51240381  0.33306015     0.16500
C1041       C  0.24662044  0.46507440  0.39312105    -0.01500
C1042       C  0.21680863  0.96807460  0.41332901     0.08200
C1043       C  0.19249529  0.94731835  0.40115715    -0.01600
C1044       C  0.19224636  0.93767695  0.35993182    -0.01600
C1045       C  0.21789325  0.94605710  0.33533370     0.08300
C1046       C  0.24725603  0.45133897  0.35436111    -0.01800
Br1047     Br  0.28699890  0.44403982  0.32570385    -0.00300
Br1048     Br  0.28694162  0.47646505  0.41822914    -0.00400
Br1049     Br  0.16185206  0.90858914  0.33934072    -0.00400
Br1050     Br  0.16516682  0.92617807  0.44042962    -0.00400
C1051       C  0.19139691  0.96097916  0.13981492    -0.01500
C1052       C  0.21587692  0.97195308  0.16476145     0.08200
C1053       C  0.24238429  0.48593189  0.14652962    -0.01600
C1054       C  0.23897190  0.50050834  0.10851397    -0.01600
C1055       C  0.21055077  0.99521058  0.08498635     0.08300
C1056       C  0.18792455  0.97279238  0.10000195    -0.01800
Br1057     Br  0.15827170  0.94925151  0.06534121    -0.00300
Br1058     Br  0.16700717  0.92551883  0.15748648    -0.00400
Br1059     Br  0.27685476  0.52090073  0.08871403    -0.00400
Br1060     Br  0.28450721  0.47662899  0.16785826    -0.00400
C1061       C  0.26860507  0.61330642  0.28181680    -0.01500
C1062       C  0.30188556  0.61508643  0.27745178     0.08200
C1063       C  0.31925915  0.58819765  0.27383130    -0.01600
C1064       C  0.30356048  0.55998740  0.27374195    -0.01600
C1065       C  0.27028163  0.55825288  0.27710417     0.08300
C1066       C  0.25292523  0.58498918  0.28208679    -0.01800
Br1067     Br  0.20757008  0.58239944  0.28765211    -0.00300
Br1068     Br  0.24454618  0.64987667  0.28367317    -0.00400
Br1069     Br  0.32722113  0.52340448  0.26727276    -0.00400
Br1070     Br  0.36455715  0.59041787  0.26683833    -0.00400
C1071       C  0.25834255  0.80569938  0.23758653    -0.01500
C1072       C  0.29028780  0.80394216  0.22524146     0.08200
C1073       C  0.30637091  0.83016003  0.21205480    -0.01600
C1074       C  0.29101029  0.85825113  0.21306969    -0.01600
C1075       C  0.25919092  0.86020986  0.22640237     0.08300
C1076       C  0.24279177  0.83369139  0.23814065    -0.01800
Br1077     Br  0.19920279  0.83588015  0.25582437    -0.00300
Br1078     Br  0.23644335  0.76945136  0.25432550    -0.00400
Br1079     Br  0.31455773  0.89444573  0.20067655    -0.00400
Br1080     Br  0.35018828  0.82764333  0.19550630    -0.00400
C1081       C  0.24806057  0.61477994  0.45833819    -0.01500
C1082       C  0.26247305  0.59139593  0.96989204     0.08200
C1083       C  0.29451131  0.59397506  0.95721689    -0.01600
C1084       C  0.30910577  0.62255433  0.95304839    -0.01600
C1085       C  0.29217357  0.64893073  0.96209322     0.08300
C1086       C  0.26333198  0.64316152  0.46114289    -0.01800
Br1087     Br  0.23952675  0.67972128  0.45541638    -0.00300
Br1088     Br  0.20273688  0.61207633  0.45248673    -0.00400
Br1089     Br  0.35318305  0.62588614  0.93811943    -0.00400
Br1090     Br  0.31955223  0.55826121  0.95036324    -0.00400
C1091       C  0.29914333  0.89117536  0.53567452    -0.01500
C1092       C  0.26188775  0.89149738  0.02757837     0.08200
C1093       C  0.24336961  0.86561229  0.01981440    -0.01600
C1094       C  0.25697415  0.83677782  0.02276507    -0.01600
C1095       C  0.28904365  0.83354192  0.03422532     0.08300
C1096       C  0.31554174  0.86366734  0.53146528    -0.01800
Br1097     Br  0.36036042  0.86173960  0.54248104    -0.00300
Br1098     Br  0.32165876  0.92743873  0.55052410    -0.00400
Br1099     Br  0.23221705  0.80142401  0.01019986    -0.00400
Br1100     Br  0.19928335  0.87006440  0.00537551    -0.00400
C1101       C  0.37950344  0.71416301  0.39965005    -0.01500
C1102       C  0.36685588  0.74226430  0.41341004     0.08200
C1103       C  0.36710372  0.76639730  0.38538443    -0.01600
C1104       C  0.36700828  0.75947925  0.34279201    -0.01600
C1105       C  0.36342894  0.72867869  0.33110579     0.08300
C1106       C  0.37709271  0.70713117  0.35781340    -0.01800
Br1107     Br  0.39639612  0.67002976  0.33790715    -0.00300
Br1108     Br  0.39835586  0.68394574  0.43647062    -0.00400
Br1109     Br  0.38068065  0.79048378  0.30358370    -0.00400
Br1110     Br  0.37841193  0.80629798  0.40404860    -0.00400
C1111       C  0.36936694  0.69461672  0.09487689    -0.01500
C1112       C  0.34625403  0.71638214  0.08313692     0.08200
C1113       C  0.31680037  0.71476461  0.10441768    -0.01600
C1114       C  0.31686888  0.70284033  0.14467130    -0.01600
C1115       C  0.34666303  0.69651081  0.16259989     0.08300
C1116       C  0.37051674  0.68596240  0.13669018    -0.01800
Br1117     Br  0.39878850  0.65520096  0.15669811    -0.00300
Br1118     Br  0.39377333  0.67175552  0.05464531    -0.00400
Br1119     Br  0.27764978  0.69778403  0.17560333    -0.00400
Br1120     Br  0.27650349  0.72508573  0.07910156    -0.00400
C1121       C  0.82560734  0.02699412  0.39438860    -0.01500
C1122       C  0.85459529  0.02984338  0.41655524     0.08200
C1123       C  0.87594490  0.55236466  0.40195630    -0.01600
C1124       C  0.87699690  0.55776557  0.35904569    -0.01600
C1125       C  0.85479008  0.04309410  0.33444591     0.08300
C1126       C  0.82542620  0.03553216  0.35273756    -0.01800
Br1127     Br  0.78593102  0.03669107  0.32167622    -0.00300
Br1128     Br  0.78575918  0.01495419  0.41989577    -0.00400
Br1129     Br  0.90259829  0.58994997  0.33604766    -0.00400
Br1130     Br  0.89754748  0.58032246  0.43906397    -0.00400
C1131       C  0.82651523  0.51478678  0.14602852    -0.01500
C1132       C  0.85769343  0.01401170  0.16464522     0.08200
C1133       C  0.87878893  0.99134187  0.14946130    -0.01600
C1134       C  0.87548839  0.98230678  0.10813719    -0.01600
C1135       C  0.85077183  0.99477076  0.08550455     0.08300
C1136       C  0.82292785  0.50292935  0.10637675    -0.03800
Br1137     Br  0.78141434  0.49839706  0.08062006    -0.00300
Br1138     Br  0.78777524  0.52608707  0.17497810    -0.00400
Br1139     Br  0.89750761  0.94779143  0.08583417    -0.00400
Br1140     Br  0.90502861  0.96608123  0.18485278    -0.00400
C1141       C  0.75583582  0.65641118  0.23912506    -0.01500
C1142       C  0.77163758  0.68390381  0.23124081     0.08200
C1143       C  0.80397559  0.68323832  0.21964760    -0.01600
C1144       C  0.82069588  0.65560191  0.21860610    -0.01600
C1145       C  0.80500697  0.62819824  0.22762678     0.08300
C1146       C  0.77233761  0.62882616  0.23714478    -0.01800
Br1147     Br  0.75037732  0.59157192  0.24800162    -0.00300
Br1148     Br  0.71131280  0.65668416  0.25219339    -0.00400
Br1149     Br  0.86550623  0.65513361  0.20742501    -0.00400
Br1150     Br  0.82537199  0.72043183  0.20650100    -0.00400
C1151       C  0.77437928  0.92916031  0.27618771    -0.01500
C1152       C  0.80690556  0.93069716  0.26587361     0.08200
C1153       C  0.82158280  0.90448292  0.25007277    -0.01600
C1154       C  0.80386928  0.87771075  0.24337084    -0.01600
C1155       C  0.77123754  0.87658611  0.25253357     0.08300
C1156       C  0.75672904  0.90234273  0.26956922    -0.01800
Br1157     Br  0.71210581  0.90097521  0.28215443    -0.00300
Br1158     Br  0.75358920  0.96417294  0.29776217    -0.00400
Br1159     Br  0.82409616  0.84212345  0.22224051    -0.00400
Br1160     Br  0.86637284  0.90500782  0.23893955    -0.00400
C1161       C  0.76838657  0.60810789  0.50828042    -0.01500
C1162       C  0.79554144  0.60246921  0.02098827     0.08200
C1163       C  0.81250456  0.62976576  0.02339258    -0.01600
C1164       C  0.79623177  0.65730135  0.02644699    -0.01600
C1165       C  0.76285094  0.65774081  0.02770184     0.08300
C1166       C  0.75419442  0.63656805  0.50324662    -0.01800
Br1167     Br  0.71138772  0.63944882  0.48246071    -0.00300
Br1168     Br  0.74620434  0.57244475  0.49007260    -0.00400
Br1169     Br  0.81929004  0.69478295  0.02659684    -0.00400
Br1170     Br  0.85807091  0.62905247  0.02089926    -0.00400
C1171       C  0.82298085  0.88442484  0.47841154    -0.01500
C1172       C  0.80132681  0.90755596  0.98510460     0.08200
C1173       C  0.76797967  0.90568137  0.98330422    -0.01600
C1174       C  0.75255972  0.87740942  0.98481922    -0.01600
C1175       C  0.77024891  0.85092848  0.99065047     0.08300
C1176       C  0.80737155  0.85694801  0.48752143    -0.01800
Br1177     Br  0.83032984  0.81967719  0.48674040    -0.00300
Br1178     Br  0.86822312  0.88560809  0.47068908    -0.00400
Br1179     Br  0.70722524  0.87473435  0.97894310    -0.00400
Br1180     Br  0.74358471  0.94211696  0.98271715    -0.00400
C1181       C  0.69943249  0.79634813  0.35812536    -0.01500
C1182       C  0.72016311  0.77931255  0.33385459     0.08200
C1183       C  0.74828594  0.76866545  0.35183986    -0.01600
C1184       C  0.74726849  0.76096393  0.39368964    -0.01600
C1185       C  0.71853183  0.76639108  0.41539610     0.08300
C1186       C  0.69845377  0.78993914  0.39999922    -0.01800
Br1187     Br  0.67449661  0.81816747  0.43472704    -0.00300
Br1188     Br  0.67519388  0.82999915  0.33567344    -0.00400
Br1189     Br  0.78712696  0.75116822  0.42083971    -0.00400
Br1190     Br  0.78868624  0.77132610  0.32271990    -0.00400
C1191       C  0.69112735  0.80205029  0.13949524    -0.01500
C1192       C  0.69755015  0.77741603  0.16538189     0.08200
C1193       C  0.68628237  0.74837307  0.15266848    -0.01600
C1194       C  0.68610062  0.74260702  0.11069787    -0.01600
C1195       C  0.69651183  0.76621286  0.08496452     0.08300
C1196       C  0.68914203  0.79594572  0.09732080    -0.01800
Br1197     Br  0.67107403  0.82561219  0.05971694    -0.00300
Br1198     Br  0.67818100  0.84072467  0.16090151    -0.00400
Br1199     Br  0.66831030  0.70487372  0.09005109    -0.00400
Br1200     Br  0.67110274  0.71653122  0.19009656    -0.00400
C1201       C  0.71330536  0.75078703  0.96209740     0.30400
C1202       C  0.71153127  0.76088386  0.54189779     0.30400
C1203       C  0.67823140  0.75153803  0.97638391    -0.05800
C1204       C  0.72626906  0.72544108  0.98968177    -0.06600
C1205       C  0.72947169  0.77939546  0.97912105    -0.06500
C1206       C  0.68006091  0.76076548  0.51827015    -0.05800
C1207       C  0.73094564  0.73435453  0.52434968    -0.06600
C1208       C  0.73007125  0.78815727  0.52447173    -0.06500
C1209       C  0.64845145  0.76047171  0.52964721    -0.31900
N1210       N  0.62669863  0.75081390  0.99341590     0.14600
C1211       C  0.64746980  0.74629767  0.96126699    -0.31900
H1212       H  0.64081506  0.74013710  0.92959648     0.16600
C1213       C  0.74709954  0.71008911  0.54082648    -0.30900
N1214       N  0.75633912  0.69215140  0.50887749     0.13300
C1215       C  0.73892394  0.69728688  0.98410596    -0.30900
C1216       C  0.74717474  0.81385208  0.53665486    -0.31100
N1217       N  0.75818202  0.82810657  0.50145515     0.13900
H1218       H  0.75119055  0.82162148  0.56839515     0.16500
C1219       C  0.74730182  0.80307446  0.96308083    -0.31200
H1220       H  0.75395440  0.80649382  0.93061860     0.16500
H1221       H  0.74301624  0.68603112  0.95452761     0.16500
H1222       H  0.63902685  0.76221362  0.56116742     0.16600
H1223       H  0.75034098  0.70492399  0.57375933     0.16500
C1224       C  0.70812921  0.74150146  0.70883280     0.30400
C1225       C  0.71424375  0.73379046  0.79024816     0.30400
C1226       C  0.67702970  0.73918372  0.73260394    -0.05800
C1227       C  0.72630482  0.71243404  0.72123099    -0.06600
C1228       C  0.72805845  0.76618985  0.73017175    -0.06500
C1229       C  0.67948674  0.73363601  0.77415163    -0.05800
C1230       C  0.72845875  0.70775782  0.76428323    -0.06600
C1231       C  0.73141326  0.76167295  0.77191831    -0.06500
C1232       C  0.64828645  0.73122182  0.78925577    -0.31900
N1233       N  0.62780935  0.73636310  0.75681095     0.14600
C1234       C  0.64532497  0.74101663  0.72211636    -0.31900
H1235       H  0.63561014  0.74594485  0.69137342     0.16600
C1236       C  0.74162427  0.67954308  0.76983049    -0.30900
N1237       N  0.74953921  0.66805960  0.73167749     0.13300
C1238       C  0.74061734  0.68816401  0.70174187    -0.30900
C1239       C  0.74955519  0.78520301  0.78801666    -0.31100
N1240       N  0.75697770  0.80443925  0.75662795     0.13900
H1241       H  0.75587353  0.78872025  0.82061375     0.16500
C1242       C  0.74447906  0.79278313  0.72059457    -0.31200
H1243       H  0.74654529  0.80324070  0.69002308     0.16500
H1244       H  0.74323371  0.68477894  0.66832256     0.16500
H1245       H  0.64124874  0.72793298  0.82159587     0.16600
H1246       H  0.74497087  0.66796558  0.79942539     0.16500
C1247       C  0.85780479  0.00289627  0.54079303     0.30400
C1248       C  0.85288138  0.01226698  0.95869062     0.30400
C1249       C  0.84325131  0.97960334  0.51119639    -0.05800
C1250       C  0.84010463  0.53279083  0.53092282    -0.06600
C1251       C  0.89082770  0.00885416  0.52158595    -0.06500
C1252       C  0.83818123  0.98174945  0.97294650    -0.05800
C1253       C  0.83665229  0.53597628  0.98489014    -0.06600
C1254       C  0.88682297  0.01032331  0.97789515    -0.06500
C1255       C  0.82476699  0.95564845  0.95583112    -0.31900
N1256       N  0.82256708  0.93985425  0.47956510     0.14600
C1257       C  0.83098049  0.95124232  0.51698004    -0.31900
H1258       H  0.82793051  0.93959563  0.54655955     0.16600
C1259       C  0.82111420  0.56284660  0.97756069    -0.30900
N1260       N  0.81601021  0.57742744  0.52143132     0.13300
C1261       C  0.82564243  0.55713203  0.55112754    -0.30900
C1262       C  0.91841156  0.50981450  0.96495954    -0.31100
N1263       N  0.94037673  0.51217145  0.49964256     0.13900
H1264       H  0.92691157  0.51092137  0.93296098     0.16500
C1265       C  0.92189725  0.50827268  0.53404339    -0.31200
H1266       H  0.93078467  0.50423572  0.56543350     0.16500
H1267       H  0.82228033  0.55973129  0.58460815     0.16500
H1268       H  0.82098012  0.95093454  0.92290706     0.16600
H1269       H  0.81664874  0.57313546  0.94728023     0.16500
C1270       C  0.85461796  0.98128748  0.70694505     0.30400
C1271       C  0.85371778  0.99632824  0.78807157     0.30400
C1272       C  0.88784691  0.98779657  0.72600309    -0.05800
C1273       C  0.83645363  0.51042849  0.71728876    -0.06600
C1274       C  0.84108489  0.95743437  0.73617566    -0.06500
C1275       C  0.88740653  0.99474493  0.76850336    -0.05800
C1276       C  0.83584731  0.51723861  0.75895216    -0.06600
C1277       C  0.84048267  0.96441322  0.77814882    -0.06500
C1278       C  0.91873193  0.49779308  0.78117512    -0.31900
N1279       N  0.93795229  0.49501926  0.74723524     0.14600
C1280       C  0.91939578  0.48895485  0.71328884    -0.31900
H1281       H  0.92827679  0.48659471  0.68164290     0.16600
C1282       C  0.81923918  0.54364332  0.76408397    -0.30900
N1283       N  0.80959204  0.55354679  0.72610198     0.13300
C1284       C  0.82045144  0.53379740  0.69683969    -0.30900
C1285       C  0.82795066  0.93898820  0.79829004    -0.31100
N1286       N  0.82092923  0.91773110  0.76868021     0.13900
H1287       H  0.82356172  0.93645779  0.83156378     0.16500
C1288       C  0.82935615  0.92882072  0.73084498    -0.31200
H1289       H  0.82637966  0.91707530  0.70133501     0.16500
H1290       H  0.81717291  0.53647506  0.66337795     0.16500
H1291       H  0.92697771  0.50270688  0.81262815     0.16600
H1292       H  0.81493128  0.55521719  0.79339843     0.16500
O1293       O  0.52861314  0.77342682  0.92746760    -0.72600
O1294       O  0.53421167  0.77420646  0.57534039    -0.73600
O1295       O  0.58019334  0.77746885  0.49804083    -0.62200
O1296       O  0.48471683  0.77228436  0.50528602    -0.70600
O1297       O  0.48720153  0.72258474  0.50585205    -0.70100
O1298       O  0.58313888  0.72781035  0.49795361    -0.61400
O1299       O  0.53657177  0.72555883  0.57532303    -0.73900
O1300       O  0.52726446  0.72471419  0.92776523    -0.72700
Cu1301     Cu  0.53228228  0.77597728  0.50157575     1.04600
Cu1302     Cu  0.53045528  0.72308774  0.00135443     1.04300
C1303       C  0.52792078  0.74904167  0.90371195     0.93600
C1304       C  0.53527712  0.74981797  0.59925196     0.92800
C1305       C  0.59671986  0.75355954  0.49598458     0.84900
C1306       C  0.47097380  0.74669924  0.50780589     0.91200
O1307       O  0.48017194  0.73126947  0.74546130    -0.72600
O1308       O  0.57527878  0.71785634  0.75626571    -0.73600
O1309       O  0.52488138  0.72505552  0.82481624    -0.62200
O1310       O  0.53108033  0.72524535  0.67765738    -0.70600
O1311       O  0.53723545  0.77364445  0.67820559    -0.70100
O1312       O  0.53269590  0.77324911  0.82526505    -0.61400
O1313       O  0.58269471  0.76714337  0.75544796    -0.73900
O1314       O  0.48771922  0.78051092  0.74792155    -0.72700
Cu1315     Cu  0.52756104  0.72335731  0.75112201     1.04600
Cu1316     Cu  0.53535384  0.77510241  0.75180011     1.04300
C1317       C  0.46904344  0.75794403  0.74411971     0.93600
C1318       C  0.59397865  0.74055045  0.75755297     0.92800
C1319       C  0.52837579  0.74909138  0.84894872     0.84900
C1320       C  0.53461684  0.74956460  0.65402606     0.91200
O1321       O  0.98822874  0.98498997  0.49959634    -0.72600
O1322       O  0.08390515  0.98118892  0.49531465    -0.73600
O1323       O  0.03697326  0.98396522  0.57171150    -0.62200
O1324       O  0.03374339  0.98370211  0.92338228    -0.70600
O1325       O  0.03442911  0.53239030  0.92475524    -0.70100
O1326       O  0.03781139  0.53256809  0.57151784    -0.61400
O1327       O  0.08631635  0.53068565  0.49753011    -0.73900
O1328       O  0.98745138  0.53241410  0.99975153    -0.72700
Cu1329     Cu  0.03599038  0.98169323  0.49793092     1.04600
Cu1330     Cu  0.03587680  0.53339616  0.99829790     1.04300
C1331       C  0.97429263  0.51056703  0.49887317     0.93600
C1332       C  0.09997002  0.50524804  0.49489656     0.92800
C1333       C  0.03706030  0.50838390  0.59587165     0.84900
C1334       C  0.03398828  0.50824430  0.90051854     0.91200
O1335       O  0.08587387  0.99164996  0.75132314    -0.72600
O1336       O  0.99045078  0.97753667  0.74624276    -0.73600
O1337       O  0.03968807  0.98477927  0.67455180    -0.62200
O1338       O  0.03686802  0.98456750  0.82149619    -0.70600
O1339       O  0.03081606  0.53287560  0.82209424    -0.70100
O1340       O  0.03226707  0.53284480  0.67449763    -0.61400
O1341       O  0.98332318  0.52639817  0.74775665    -0.73900
O1342       O  0.07873825  0.54112042  0.74984731    -0.72700
Cu1343     Cu  0.03846239  0.98316122  0.74827268     1.04600
Cu1344     Cu  0.03097200  0.53479350  0.74843085     1.04300
C1345       C  0.09730288  0.01838060  0.75205673     0.93600
C1346       C  0.97189847  0.49968718  0.74705065     0.92800
C1347       C  0.03640393  0.50870236  0.65080110     0.84900
C1348       C  0.03389167  0.50861764  0.84590663     0.91200
C1349       C  0.35102117  0.73455219  0.54016604     0.30400
C1350       C  0.35269561  0.75136768  0.96281082     0.30400
C1351       C  0.33563783  0.71107352  0.51187813    -0.05800
C1352       C  0.33738004  0.76493531  0.52446341    -0.06600
C1353       C  0.38588371  0.73736595  0.52520322    -0.06500
C1354       C  0.33603490  0.72040662  0.96856232    -0.05800
C1355       C  0.33251905  0.77136253  0.99138731    -0.06600
C1356       C  0.38407545  0.74984493  0.98670783    -0.06500
C1357       C  0.31934242  0.69888041  0.94499810    -0.31900
N1358       N  0.31095848  0.67369630  0.47843302     0.14600
C1359       C  0.31929977  0.68419439  0.51689842    -0.31900
H1360       H  0.31428193  0.67287536  0.54626316     0.16600
C1361       C  0.31491646  0.79714467  0.98769577    -0.30900
N1362       N  0.31602120  0.80959409  0.51202168     0.13300
C1363       C  0.32387121  0.78992091  0.54268122    -0.30900
C1364       C  0.41519282  0.75630559  0.97691860    -0.31100
N1365       N  0.43702563  0.74509227  0.50822321     0.13900
H1366       H  0.42412998  0.76424090  0.94697405     0.16500
C1367       C  0.41694309  0.73890086  0.54075737    -0.31200
H1368       H  0.42432348  0.73630837  0.57308774     0.16500
H1369       H  0.31952110  0.79347633  0.57577784     0.16500
H1370       H  0.31482138  0.69955619  0.91151540     0.16600
H1371       H  0.31026409  0.80962121  0.95915700     0.16500
C1372       C  0.34934149  0.75096117  0.70901063     0.30400
C1373       C  0.35509393  0.76575485  0.79002279     0.30400
C1374       C  0.38388263  0.75662492  0.72396209    -0.05800
C1375       C  0.33316801  0.78123375  0.72144767    -0.06600
C1376       C  0.33537618  0.72830252  0.73973272    -0.06500
C1377       C  0.38602094  0.76517286  0.76511309    -0.05800
C1378       C  0.33531661  0.78844631  0.76415912    -0.06600
C1379       C  0.33713960  0.73594844  0.78089296    -0.06500
C1380       C  0.41754070  0.76976213  0.77508038    -0.31900
N1381       N  0.43531409  0.76251796  0.74155713     0.14600
C1382       C  0.41517500  0.75511203  0.70952607    -0.31900
H1383       H  0.42277696  0.74803987  0.67868851     0.16600
C1384       C  0.31882742  0.81498364  0.76965873    -0.30900
N1385       N  0.30885263  0.82517960  0.73161875     0.13300
C1386       C  0.31770209  0.80495892  0.70188435    -0.30900
C1387       C  0.32150309  0.71318717  0.80321749    -0.31100
N1388       N  0.31131592  0.69184483  0.77568842     0.13900
H1389       H  0.31801445  0.71216521  0.83686612     0.16500
C1390       C  0.31954024  0.70106606  0.73670776    -0.31200
H1391       H  0.31403861  0.68893518  0.70816284     0.16500
H1392       H  0.31314968  0.80733348  0.66860422     0.16500
H1393       H  0.42698514  0.77534945  0.80576909     0.16600
H1394       H  0.31422651  0.82627548  0.79899471     0.16500
C1395       C  0.21648811  0.98490738  0.95725064     0.30400
C1396       C  0.21664964  0.99813345  0.53502812     0.30400
C1397       C  0.22836896  0.96014121  0.98537523    -0.05800
C1398       C  0.23538316  0.51340623  0.97042686    -0.06600
C1399       C  0.18261097  0.99262294  0.97329038    -0.06500
C1400       C  0.22998825  0.96684051  0.52612142    -0.05800
C1401       C  0.23496393  0.51938078  0.50558145    -0.06600
C1402       C  0.18379486  0.99952768  0.51404302    -0.06500
C1403       C  0.24406322  0.94321982  0.54811718    -0.31900
N1404       N  0.25092118  0.92091660  0.52041013     0.14600
C1405       C  0.24157949  0.93190293  0.98046885    -0.31900
H1406       H  0.24550986  0.92023627  0.95111917     0.16600
C1407       C  0.24321883  0.54930606  0.50808584    -0.30900
N1408       N  0.25006145  0.55959747  0.46921319     0.13300
C1409       C  0.24424254  0.53964166  0.94965636    -0.30900
C1410       C  0.15377410  0.00877046  0.52523758    -0.31100
N1411       N  0.13303361  0.00622136  0.99081635     0.13900
H1412       H  0.14636828  0.01682955  0.55572125     0.16500
C1413       C  0.15155210  0.99608257  0.95874008    -0.31200
H1414       H  0.14291478  0.99142271  0.92742374     0.16500
H1415       H  0.24625776  0.54259931  0.91601553     0.16500
H1416       H  0.24893931  0.94241349  0.58147225     0.16600
H1417       H  0.24400439  0.56285032  0.53625409     0.16500
C1418       C  0.21311384  0.01680012  0.71031731     0.30400
C1419       C  0.21365840  0.00211572  0.79120401     0.30400
C1420       C  0.22626775  0.98525146  0.72110577    -0.05800
C1421       C  0.23331597  0.53850245  0.73722381    -0.06600
C1422       C  0.18084379  0.01992840  0.73273939    -0.06500
C1423       C  0.22546720  0.97790117  0.76194869    -0.05800
C1424       C  0.23403306  0.53057390  0.77964864    -0.06600
C1425       C  0.18066501  0.01118585  0.77428622    -0.06500
C1426       C  0.23796513  0.94937948  0.76665578    -0.31900
N1427       N  0.24660243  0.93886053  0.72865709     0.14600
C1428       C  0.23979564  0.96075617  0.70013132    -0.31900
H1429       H  0.24430917  0.95905297  0.66679157     0.16600
C1430       C  0.24244437  0.55623793  0.80189090    -0.30900
N1431       N  0.24756927  0.57910688  0.77441715     0.13300
C1432       C  0.23976081  0.56908946  0.73556207    -0.30900
C1433       C  0.14948233  0.01340376  0.78784077    -0.31100
N1434       N  0.13106965  0.02285348  0.75530947     0.13900
H1435       H  0.14046710  0.00707689  0.81840227     0.16500
C1436       C  0.15032401  0.02853869  0.72218140    -0.31200
H1437       H  0.14218760  0.03497543  0.69119630     0.16500
H1438       H  0.23865605  0.58316496  0.70789683     0.16500
H1439       H  0.24111989  0.93726699  0.79586391     0.16600
H1440       H  0.24388944  0.55830273  0.83571413     0.16500
C1441       C  0.24928968  0.48113935  0.89344326    -0.01500
C1442       C  0.22086203  0.97535150  0.91403914     0.08200
C1443       C  0.19609353  0.96217902  0.89153938    -0.01600
C1444       C  0.19400034  0.96945477  0.84947407    -0.01600
C1445       C  0.21700188  0.98994912  0.83343445     0.08300
C1446       C  0.24771363  0.48922503  0.85178278    -0.01800
Br1447     Br  0.28730643  0.49503838  0.82165994    -0.00300
Br1448     Br  0.28964563  0.47801500  0.92219197    -0.00400
Br1449     Br  0.16447271  0.94693829  0.81480648    -0.00400
Br1450     Br  0.16981287  0.93126539  0.91656025    -0.00400
C1451       C  0.18980512  0.99665242  0.64545876    -0.01500
C1452       C  0.21214376  0.01744440  0.66404635     0.08200
C1453       C  0.24046985  0.52505384  0.64105485    -0.01600
C1454       C  0.24299979  0.51628035  0.59948415    -0.01600
C1455       C  0.21645729  0.00362626  0.58005700     0.08300
C1456       C  0.19308030  0.98895234  0.60396209    -0.01800
Br1457     Br  0.16983368  0.95349935  0.58274831    -0.00300
Br1458     Br  0.16045279  0.97015488  0.67659299    -0.00400
Br1459     Br  0.28505648  0.51251796  0.57452194    -0.00400
Br1460     Br  0.27963514  0.53981645  0.66614427    -0.00400
C1461       C  0.26128045  0.66280532  0.77539159    -0.01500
C1462       C  0.29396255  0.66441421  0.78436656     0.08200
C1463       C  0.31023008  0.63787812  0.79503558    -0.01600
C1464       C  0.29431824  0.60982135  0.79455509    -0.01600
C1465       C  0.26197243  0.60803366  0.78313396     0.08300
C1466       C  0.24534573  0.63477343  0.77468412    -0.01800
Br1467     Br  0.20091501  0.63265572  0.76096517    -0.00300
Br1468     Br  0.23902260  0.69923897  0.76209947    -0.00400
Br1469     Br  0.31769730  0.57350481  0.80522842    -0.00400
Br1470     Br  0.35494596  0.63971897  0.80670006    -0.00400
C1471       C  0.25963626  0.85514875  0.73366090    -0.01500
C1472       C  0.29223297  0.85317154  0.72472905     0.08200
C1473       C  0.30893980  0.87941253  0.71274822    -0.01600
C1474       C  0.29342562  0.90757850  0.71127338    -0.01600
C1475       C  0.26104445  0.90975678  0.72199939     0.08300
C1476       C  0.24415962  0.88323583  0.73250716    -0.01800
Br1477     Br  0.19984755  0.88567267  0.74652400    -0.00300
Br1478     Br  0.23668012  0.81915372  0.74868826    -0.00400
Br1479     Br  0.31704052  0.94362399  0.69832245    -0.00400
Br1480     Br  0.35362692  0.87674590  0.70130827    -0.00400
C1481       C  0.24502370  0.61790878  0.97683543    -0.01500
C1482       C  0.26575132  0.58809974  0.46207041     0.08200
C1483       C  0.29879322  0.59009335  0.46813973    -0.01600
C1484       C  0.31374170  0.61831345  0.47320152    -0.01600
C1485       C  0.29604143  0.64498764  0.47006457     0.08300
C1486       C  0.25979668  0.64647921  0.97277430    -0.01800
Br1487     Br  0.23638045  0.68265926  0.98343351    -0.00300
Br1488     Br  0.20118881  0.61490242  0.99316736    -0.00400
Br1489     Br  0.35816295  0.62047410  0.48683665    -0.00400
Br1490     Br  0.32300410  0.55363313  0.47227698    -0.00400
C1491       C  0.29329355  0.88820871  0.04217970    -0.01500
C1492       C  0.26625762  0.89240313  0.52775846     0.08200
C1493       C  0.24958063  0.86545501  0.51948633    -0.01600
C1494       C  0.26599027  0.83811421  0.51483559    -0.01600
C1495       C  0.29921498  0.83739584  0.51875379     0.08300
C1496       C  0.30675120  0.85925911  0.04570772    -0.01800
Br1497     Br  0.34996476  0.85453621  0.06400551    -0.00300
Br1498     Br  0.31832861  0.92346083  0.05463131    -0.00400
Br1499     Br  0.24325832  0.80134515  0.50349307    -0.00400
Br1500     Br  0.20406836  0.86636114  0.51514636    -0.00400
C1501       C  0.37511246  0.73622646  0.89482509    -0.01500
C1502       C  0.36014372  0.75887238  0.91881085     0.08200
C1503       C  0.36170190  0.78872613  0.90338666    -0.01600
C1504       C  0.36233830  0.79279609  0.85985979    -0.01600
C1505       C  0.36376677  0.76691737  0.83493677     0.08300
C1506       C  0.37770687  0.74061449  0.85240409    -0.01800
Br1507     Br  0.39841743  0.70905467  0.81976033    -0.00300
Br1508     Br  0.39411240  0.69986980  0.91848237    -0.00400
Br1509     Br  0.37297309  0.83155262  0.83634807    -0.00400
Br1510     Br  0.37443402  0.82177183  0.93920078    -0.00400
C1511       C  0.36621375  0.71094284  0.60840648    -0.01500
C1512       C  0.34453711  0.72711014  0.58419490     0.08200
C1513       C  0.31547705  0.73501164  0.60264840    -0.01600
C1514       C  0.31579182  0.74132788  0.64519920    -0.01600
C1515       C  0.34513499  0.73861525  0.66645972     0.08300
C1516       C  0.36624251  0.71636380  0.65121970    -0.01800
Br1517     Br  0.39021325  0.68977553  0.68748642    -0.00300
Br1518     Br  0.39022200  0.67823910  0.58461891    -0.00400
Br1519     Br  0.27592548  0.74843066  0.67343576    -0.00400
Br1520     Br  0.27614824  0.73584713  0.57113988    -0.00400
C1521       C  0.81968718  0.01087793  0.89443664    -0.01500
C1522       C  0.84845203  0.01900338  0.91393185     0.08200
C1523       C  0.87103189  0.53447858  0.89015718    -0.01600
C1524       C  0.87086754  0.52980608  0.84706491    -0.01600
C1525       C  0.85014012  0.00767327  0.83125797     0.08300
C1526       C  0.82077535  0.00373092  0.85229439    -0.01800
Br1527     Br  0.78146168  0.99240429  0.82458263    -0.00300
Br1528     Br  0.77949788  0.01062583  0.92408178    -0.00400
Br1529     Br  0.89129457  0.55940347  0.81123976    -0.00400
Br1530     Br  0.89544204  0.56709911  0.91437086    -0.00400
C1531       C  0.82221850  0.47699569  0.64246983    -0.01500
C1532       C  0.85108200  0.97118727  0.66325479     0.08200
C1533       C  0.87654296  0.96053089  0.64017899    -0.01600
C1534       C  0.87801233  0.96886242  0.59821121    -0.01600
C1535       C  0.85525592  0.99009970  0.58343919     0.08300
C1536       C  0.82427309  0.48862711  0.60235956    -0.03800
Br1537     Br  0.78475078  0.49826347  0.57403680    -0.00300
Br1538     Br  0.78158676  0.47160613  0.66980337    -0.00400
Br1539     Br  0.90376998  0.94430481  0.56150468    -0.00400
Br1540     Br  0.90220787  0.92857736  0.66296286    -0.00400
C1541       C  0.74622485  0.61245840  0.73506568    -0.01500
C1542       C  0.76333674  0.63874489  0.72450026     0.08200
C1543       C  0.79460521  0.63601863  0.70914926    -0.01600
C1544       C  0.80909727  0.60744406  0.70660531    -0.01600
C1545       C  0.79266062  0.58140479  0.71975933     0.08300
C1546       C  0.76092666  0.58401334  0.73327803    -0.01800
Br1547     Br  0.73804515  0.54850736  0.75056586    -0.00300
Br1548     Br  0.70248210  0.61574850  0.75178185    -0.00400
Br1549     Br  0.85241653  0.60383119  0.68840463    -0.00400
Br1550     Br  0.81835831  0.67165844  0.69473695    -0.00400
C1551       C  0.77135150  0.88827183  0.76469452    -0.01500
C1552       C  0.80407711  0.88955812  0.77338191     0.08200
C1553       C  0.82090073  0.86254066  0.77840520    -0.01600
C1554       C  0.80530650  0.83445611  0.77355258    -0.01600
C1555       C  0.77289006  0.83317687  0.76231912     0.08300
C1556       C  0.75576828  0.86030459  0.75969825    -0.01800
Br1557     Br  0.71066980  0.85931537  0.75162951    -0.00300
Br1558     Br  0.74831571  0.92525142  0.75819097    -0.00400
Br1559     Br  0.82830381  0.79765529  0.78166488    -0.00400
Br1560     Br  0.86567505  0.86453011  0.78984468    -0.00400
C1561       C  0.76213140  0.60278279  0.02318562    -0.01500
C1562       C  0.79898836  0.60542388  0.52598173     0.08200
C1563       C  0.81488236  0.63166847  0.53955199    -0.01600
C1564       C  0.80109866  0.66031783  0.53329172    -0.01600
C1565       C  0.77088493  0.66295025  0.51431637     0.08300
C1566       C  0.74585664  0.63035461  0.02682554    -0.01800
Br1567     Br  0.70024831  0.63118795  0.02911052    -0.00300
Br1568     Br  0.73892137  0.56548962  0.01909332    -0.00400
Br1569     Br  0.82438095  0.69618220  0.54815059    -0.00400
Br1570     Br  0.85625645  0.62820401  0.56460810    -0.00400
C1571       C  0.81901806  0.88101450  0.99033390    -0.01500
C1572       C  0.80583863  0.91152439  0.47671901     0.08200
C1573       C  0.77296921  0.91078778  0.48473838    -0.01600
C1574       C  0.75754758  0.88348430  0.49514356    -0.01600
C1575       C  0.77477079  0.85647677  0.49731962     0.08300
C1576       C  0.80351744  0.85282267  0.99328028    -0.01800
Br1577     Br  0.82738440  0.81662346  0.00207366    -0.00300
Br1578     Br  0.86441806  0.88383101  0.99540510    -0.00400
Br1579     Br  0.71268144  0.88274506  0.50600219    -0.00400
Br1580     Br  0.74969167  0.94786603  0.48366943    -0.00400
C1581       C  0.69761714  0.76257993  0.85117289    -0.01500
C1582       C  0.71612118  0.73801925  0.83520393     0.08200
C1583       C  0.74368522  0.72956225  0.85771339    -0.01600
C1584       C  0.74481812  0.73647171  0.89993836    -0.01600
C1585       C  0.71776029  0.74956906  0.91761501     0.08300
C1586       C  0.69887769  0.76844810  0.89300837    -0.01800
Br1587     Br  0.67760688  0.80426070  0.91485292    -0.00300
Br1588     Br  0.67570215  0.79321312  0.81724063    -0.00400
Br1589     Br  0.78526515  0.73628207  0.92933072    -0.00400
Br1590     Br  0.78284237  0.71713500  0.83127821    -0.00400
C1591       C  0.69311898  0.77638863  0.65234588    -0.01500
C1592       C  0.70022123  0.74692690  0.66597109     0.08200
C1593       C  0.69069424  0.72294991  0.64047826    -0.01600
C1594       C  0.69190055  0.72815135  0.59830413    -0.01600
C1595       C  0.70334876  0.75704820  0.58510799     0.08300
C1596       C  0.69607767  0.78197936  0.61018168    -0.01800
Br1597     Br  0.68312327  0.82056087  0.58782072    -0.00300
Br1598     Br  0.67360166  0.80621343  0.68804029    -0.00400
Br1599     Br  0.67543114  0.69662227  0.56136193    -0.00400
Br1600     Br  0.67207703  0.68574796  0.66172878    -0.00400
loop_ 
_geom_bond_atom_site_label_1 
_geom_bond_atom_site_label_2 
_geom_bond_distance 
_geom_bond_site_symmetry_2 
_ccdc_geom_bond_type 
C1            C3   1.545       .  S
C1            C5   1.544       .  S
C1            C4   1.547       .  S
C1          C385   1.442       .  S
C2            C6   1.512       .  S
C2            C8   1.531       .  S
C2            C7   1.558       .  S
C2          C395   1.426       .  S
C3           C11   1.402       .  A
C3          C406   1.350       .  A
C4           C15   1.395       .  A
C4          C407   1.375       .  A
C5           C19   1.378       .  A
C5          C408   1.367       .  A
C6            C9   1.371       .  A
C6          C403   1.353   1_554  A
C7           C13   1.394       .  A
C7          C404   1.380   1_554  A
C8           C16   1.388       .  A
C8          C405   1.360   1_554  A
C9           H22   1.084       .  S
C9          N410   1.339   1_554  A
N10          C11   1.365       .  A
N10         C409   1.345       .  A
N10         C505   1.439       .  S
C11          H12   1.082       .  S
C13          H23   1.082       .  S
C13          N14   1.363       .  A
N14         C415   1.353   1_554  A
N14         C365   1.442       .  S
C15          H21   1.083       .  S
C15         N414   1.366       .  A
C16          H18   1.082       .  S
C16          N17   1.358   1_554  A
N17         C419   1.355       .  A
N17         C375   1.442       .  S
C19          H20   1.083       .  S
C19         N417   1.344       .  A
C24          C26   1.530       .  S
C24          C28   1.548       .  S
C24          C27   1.554       .  S
C24         C392   1.428       .  S
C25          C29   1.554       .  S
C25          C31   1.541       .  S
C25          C30   1.540       .  S
C25         C382   1.430       .  S
C26          C34   1.386       .  A
C26          C29   1.351       .  A
C27          C38   1.396       .  A
C27          C30   1.362       .  A
C28          C42   1.400       .  A
C28          C31   1.373       .  A
C29          C32   1.407       .  A
C30          C36   1.393       .  A
C31          C39   1.380       .  A
C32          H45   1.082       .  S
C32          N33   1.370       .  A
N33          C34   1.347       .  A
N33         C118   1.448       .  S
C34          H35   1.084       .  S
C36          H46   1.083       .  S
C36          N37   1.361       .  A
N37          C38   1.360       .  A
N37         C342   1.454       .  S
C38          H44   1.081       .  S
C39          H41   1.083       .  S
C39          N40   1.352       .  A
N40          C42   1.368       .  A
N40         C355   1.451       .  S
C42          H43   1.082       .  S
C47          C49   1.514       .  S
C47          C51   1.550       .  S
C47         C335   1.458       .  S
C47         C850   1.545       .  S
C48          C52   1.552       .  S
C48          C54   1.545       .  S
C48         C322   1.472       .  S
C48         C853   1.527       .  S
C49          C57   1.376       .  A
C49         C452   1.365   1_554  A
C50         C847   1.545       .  S
C50          C61   1.393       .  A
C50         C453   1.366   1_554  A
C51         C865   1.389       .  A
C51         C454   1.389   1_554  A
C52          C55   1.405       .  A
C52         C449   1.369       .  A
C53         C848   1.527       .  S
C53          C59   1.374       .  A
C53         C450   1.371       .  A
C54         C451   1.386       .  A
C54         C862   1.384       .  A
C55          H68   1.082       .  S
C55         N456   1.369       .  A
N56          C57   1.349   1_556  A
N56         C455   1.364       .  A
N56         C372   1.442       .  S
C57          H58   1.083       .  S
C59          H69   1.083       .  S
C59         N460   1.348       .  A
N60          C61   1.358       .  A
N60         C459   1.356   1_554  A
N60         C362   1.444       .  S
C61          H67   1.079       .  S
C62         C854   1.383       .  A
C62          H64   1.082       .  S
C62         N463   1.355       .  A
N63          C65   1.357   1_556  A
N63         C462   1.361       .  A
N63         C131   1.446       .  S
C65         C851   1.390       .  A
C65          H66   1.082       .  S
C70          C72   1.546       .  S
C70          C74   1.532       .  S
C70         C332   1.469       .  S
C70         C873   1.552       .  S
C71          C75   1.559       .  S
C71          C77   1.554       .  S
C71         C325   1.466       .  S
C71         C876   1.534       .  S
C72          C75   1.390       .  A
C72         C880   1.383       .  A
C73         C870   1.551       .  S
C73          C84   1.401       .  A
C73          C76   1.371       .  A
C74          C88   1.385       .  A
C74          C77   1.354       .  A
C75         C878   1.394       .  A
C76         C871   1.534       .  S
C76          C82   1.382       .  A
C77          C85   1.409       .  A
C78         C875   1.393       .  A
C78          H91   1.082       .  S
C78          N79   1.364       .  A
N79          C80   1.355       .  A
N79         C146   1.442       .  S
C80         C872   1.383       .  A
C80          H81   1.083       .  S
C82          H92   1.084       .  S
C82          N83   1.355       .  A
N83          C84   1.368       .  A
N83         C345   1.453       .  S
C84          H90   1.081       .  S
C85          H87   1.081       .  S
C85          N86   1.369       .  A
N86          C88   1.347       .  A
N86         C352   1.456       .  S
C88          H89   1.084       .  S
O93         C103   1.326       .  A
O93        Cu501   2.358       .  S
O94         C104   1.324       .  A
O94        Cu101   2.350       .  S
O95         C105   1.275       .  A
O95        Cu101   2.004   1_556  S
O96         C106   1.276       .  A
O96        Cu101   2.014       .  S
O97         C106   1.278       .  A
O97        Cu502   2.032       .  S
O98         C105   1.276       .  A
O98        Cu502   2.022   1_556  S
O99         C104   1.324       .  A
O99        Cu502   2.350       .  S
O100        C103   1.325       .  A
O100       Cu102   2.352       .  S
Cu101       O493   2.343   1_554  S
Cu101      Cu502   2.323       .  S
Cu102       O497   2.026       .  S
Cu102       O498   2.037       .  S
Cu102       O499   2.344       .  S
Cu102      Cu501   2.322       .  S
C103        C119   1.752       .  S
C104        C120   1.746       .  S
C105        N410   1.429       .  S
C106        N165   1.435       .  S
O107        C117   1.278       .  A
O107       Cu115   2.043       .  S
O108        C118   1.279       .  A
O108       Cu115   2.049       .  S
O109        C119   1.326       .  A
O109       Cu115   2.358       .  S
O110        C120   1.325       .  A
O110       Cu115   2.351       .  S
O111        C120   1.323       .  A
O111       Cu116   2.345       .  S
O112        C119   1.325       .  A
O112       Cu116   2.355       .  S
O113        C118   1.280       .  A
O113       Cu116   2.047       .  S
O114        C117   1.282       .  A
O114       Cu116   2.052       .  S
Cu115      Cu116   2.319       .  S
C117        N181   1.448       .  S
O121        C931   1.279       .  A
O121       Cu129   2.040   1_655  S
O122        C932   1.278       .  A
O122       Cu129   2.034       .  S
O123        C933   1.327       .  A
O123       Cu129   2.364   1_554  S
O124        C934   1.322       .  A
O124       Cu529   2.336       .  S
O125        C134   1.323       .  A
O125       Cu130   2.341       .  S
O126        C133   1.326       .  A
O126       Cu530   2.359   1_554  S
O127        C132   1.278       .  A
O127       Cu530   2.036       .  S
O128        C531   1.275       .  A
O128       Cu130   2.016   1_655  S
Cu129       O524   2.338       .  S
Cu129     Cu1330   2.321       .  S
Cu130       O526   2.354       .  S
Cu130       O527   2.017       .  S
Cu130     Cu1329   2.323   1_545  S
C131        O921   1.279   1_545  A
C131        O528   1.279       .  A
C132       N1411   1.442       .  S
C132        O922   1.279   1_545  A
C133        O923   1.327   1_545  A
C133        C147   1.757       .  S
C134        O924   1.322   1_545  A
C134        C148   1.737       .  S
O135        C145   1.278       .  A
O135       Cu143   2.038       .  S
O136        C946   1.278       .  A
O136       Cu143   2.034   1_655  S
O137        C947   1.327       .  A
O137       Cu143   2.366       .  S
O138        C948   1.323       .  A
O138       Cu143   2.340       .  S
O139        C148   1.322       .  A
O139       Cu144   2.336       .  S
O140        C147   1.325       .  A
O140       Cu144   2.357       .  S
O141        C146   1.278       .  A
O141       Cu144   2.038   1_655  S
O142        C945   1.281   1_545  A
O142       Cu144   2.056       .  S
Cu143      Cu944   2.321       .  S
Cu144      Cu943   2.321   1_545  S
C145        N234   1.448       .  S
C145        O942   1.281       .  A
C146        O936   1.278   1_545  A
C147        O937   1.327   1_545  A
C148        O938   1.323   1_545  A
C149        C151   1.523       .  S
C149        C153   1.546       .  S
C149        C152   1.565       .  S
C149        C312   1.477       .  S
C150        C154   1.543       .  S
C150        C156   1.521       .  S
C150        C155   1.556       .  S
C150        C302   1.475       .  S
C151        C159   1.377       .  A
C151        C554   1.364   1_554  A
C152        C163   1.394       .  A
C152        C555   1.396   1_554  A
C153        C167   1.398       .  A
C153        C556   1.368   1_554  A
C154        C157   1.392       .  A
C154        C551   1.359       .  A
C155        C161   1.393       .  A
C155        C552   1.397       .  A
C156        C164   1.372       .  A
C156        C553   1.370       .  A
C157        H170   1.083       .  S
C157        N558   1.357       .  A
N158        C159   1.349   1_556  A
N158        C557   1.365       .  A
N158        C285   1.446       .  S
C159        H160   1.082       .  S
C161        H171   1.080       .  S
C161        N562   1.365       .  A
N162        C163   1.365       .  A
N162        C561   1.354   1_554  A
N162        C295   1.444       .  S
C163        H169   1.082       .  S
C164        H166   1.084       .  S
C164        N565   1.341       .  A
N165        C167   1.363       .  A
N165        C564   1.345   1_554  A
C167        H168   1.082       .  S
C172        C174   1.567       .  S
C172        C176   1.530       .  S
C172        C175   1.554       .  S
C172        C315   1.474       .  S
C173        C177   1.529       .  S
C173        C179   1.554       .  S
C173        C178   1.528       .  S
C173        C305   1.468       .  S
C174        C182   1.412       .  A
C174        C177   1.375       .  A
C175        C186   1.391       .  A
C175        C178   1.373       .  A
C176        C190   1.379       .  A
C176        C179   1.374       .  A
C177        C180   1.377       .  A
C178        C184   1.380       .  A
C179        C187   1.400       .  A
C180        H193   1.084       .  S
C180        N181   1.342       .  A
N181        C182   1.375       .  A
C182        H183   1.081       .  S
C184        H194   1.083       .  S
C184        N185   1.353       .  A
N185        C186   1.357       .  A
N185        C272   1.439       .  S
C186        H192   1.082       .  S
C187        H189   1.082       .  S
C187        N188   1.368       .  A
N188        C190   1.353       .  A
N188        C262   1.451       .  S
C190        H191   1.083       .  S
C195        C197   1.527       .  S
C195        C199   1.545       .  S
C195        C242   1.463       .  S
C195        C998   1.561       .  S
C196        C200   1.549       .  S
C196        C202   1.532       .  S
C196        C255   1.480       .  S
C196       C1001   1.547       .  S
C197        C205   1.382       .  A
C197        C600   1.350       .  A
C198        C995   1.560   1_545  S
C198        C209   1.397       .  A
C198        C601   1.390       .  A
C199        C213   1.390       .  A
C199        C602   1.375       .  A
C200        C203   1.396       .  A
C200        C597   1.345   1_554  A
C201        C996   1.548   1_545  S
C201        C207   1.394       .  A
C201        C598   1.396   1_554  A
C202        C210   1.380       .  A
C202        C599   1.377   1_554  A
C203        H216   1.080       .  S
C203        N204   1.355       .  A
N204        C605   1.355   1_554  A
N204        C292   1.445       .  S
C205        H206   1.082       .  S
C205        N604   1.351       .  A
C207        H217   1.081       .  S
C207        N208   1.359   1_554  A
N208        C609   1.355       .  A
N208        C282   1.451       .  S
C209        H215   1.083       .  S
C209        N608   1.364       .  A
C210        H212   1.083       .  S
C210        N611   1.351   1_554  A
N211        C213   1.361       .  A
N211        C610   1.350       .  A
N211       C1332   1.433       .  S
C213        H214   1.082       .  S
C218        C220   1.532       .  S
C218        C222   1.545       .  S
C218        C252   1.456       .  S
C218       C1021   1.536       .  S
C219        C223   1.519       .  S
C219        C225   1.559       .  S
C219        C245   1.461       .  S
C219       C1024   1.558       .  S
C220        C228   1.390       .  A
C220        C223   1.358       .  A
C221       C1018   1.536       .  S
C221        C232   1.387   1_565  A
C221        C224   1.372       .  A
C222        C236   1.385       .  A
C222        C225   1.383       .  A
C223        C226   1.379       .  A
C224       C1019   1.557       .  S
C224        C230   1.398   1_565  A
C225        C233   1.399       .  A
C226        H239   1.082       .  S
C226        N227   1.354       .  A
N227        C228   1.362       .  A
N227        C275   1.444       .  S
C228        H229   1.083       .  S
C230        H240   1.079       .  S
C230        N231   1.361       .  A
N231        C232   1.353       .  A
N231        C265   1.449       .  S
C232        H238   1.083       .  S
C233        H235   1.081       .  S
C233        N234   1.367       .  A
N234        C236   1.353       .  A
C236        H237   1.083       .  S
C241        C246   1.379       .  A
C241       C1042   1.422       .  A
C241       Br248   1.942       .  S
C242        C243   1.428       .  A
C242       C1041   1.423       .  A
C243        C244   1.382       .  A
C243       Br250   1.939       .  S
C244        C245   1.385       .  A
C244       Br249   1.929       .  S
C245       C1046   1.402       .  A
C246       C1045   1.403       .  A
C246       Br247   1.939       .  S
C251        C252   1.389       .  A
C251        C256   1.380       .  A
C251       Br258   1.959       .  S
C252       C1053   1.392       .  A
C253        C254   1.379   1_565  A
C253       C1052   1.391       .  A
C253       Br260   1.946       .  S
C254       C1055   1.428   1_545  A
C254       Br259   1.936       .  S
C255        C256   1.455       .  A
C255       C1054   1.428       .  A
C256       Br257   1.965       .  S
C261        C262   1.412       .  A
C261        C266   1.419       .  A
C261       Br268   1.923       .  S
C262        C263   1.411       .  A
C263        C264   1.414       .  A
C263       Br270   1.925       .  S
C264        C265   1.409       .  A
C264       Br269   1.925       .  S
C265        C266   1.410       .  A
C266       Br267   1.923       .  S
C271        C272   1.406       .  A
C271        C276   1.410       .  A
C271       Br278   1.927       .  S
C272        C273   1.408       .  A
C273        C274   1.411       .  A
C273       Br280   1.926       .  S
C274        C275   1.411       .  A
C274       Br279   1.926       .  S
C275        C276   1.413       .  A
C276       Br277   1.926       .  S
C281        C286   1.415       .  A
C281        C682   1.410       .  A
C281       Br288   1.922       .  S
C282        C283   1.413       .  A
C282        C681   1.411       .  A
C283        C284   1.413       .  A
C283       Br290   1.925       .  S
C284        C285   1.407       .  A
C284       Br289   1.924       .  S
C285        C686   1.411       .  A
C286        C685   1.409       .  A
C286       Br287   1.924       .  S
C291        C296   1.416       .  A
C291        C692   1.410       .  A
C291       Br298   1.925       .  S
C292        C293   1.408       .  A
C292        C691   1.412       .  A
C293        C294   1.410       .  A
C293       Br300   1.925       .  S
C294        C295   1.408       .  A
C294       Br299   1.923       .  S
C295        C696   1.410       .  A
C296        C695   1.411       .  A
C296       Br297   1.924       .  S
C301        C302   1.431       .  A
C301        C306   1.373       .  A
C301       Br308   1.954       .  S
C302        C303   1.394       .  A
C303        C304   1.391       .  A
C303       Br310   1.928       .  S
C304        C305   1.427       .  A
C304       Br309   1.944       .  S
C305        C306   1.406       .  A
C306       Br307   1.951       .  S
C311        C312   1.426       .  A
C311        C316   1.386       .  A
C311       Br318   1.938       .  S
C312        C313   1.417       .  A
C313        C314   1.386       .  A
C313       Br320   1.937       .  S
C314        C315   1.409       .  A
C314       Br319   1.938       .  S
C315        C316   1.387       .  A
C316       Br317   1.927       .  S
C321        C322   1.416       .  A
C321        C326   1.379       .  A
C321       Br328   1.939       .  S
C322       C1123   1.423       .  A
C323        C324   1.388       .  A
C323       C1122   1.423       .  A
C323       Br330   1.939       .  S
C324       C1125   1.394       .  A
C324       Br329   1.931       .  S
C325        C326   1.407       .  A
C325       C1124   1.394       .  A
C326       Br327   1.937       .  S
C331        C336   1.377       .  A
C331       C1132   1.431       .  A
C331       Br338   1.946       .  S
C332        C333   1.434       .  A
C332       C1131   1.431       .  A
C333        C334   1.383       .  A
C333       Br340   1.940       .  S
C334        C335   1.384       .  A
C334       Br339   1.936       .  S
C335       C1136   1.395       .  A
C336       C1135   1.395   1_545  A
C336       Br337   1.941   1_545  S
C341        C342   1.410       .  A
C341        C346   1.415       .  A
C341       Br348   1.923       .  S
C342        C343   1.413       .  A
C343        C344   1.421       .  A
C343       Br350   1.924       .  S
C344        C345   1.411       .  A
C344       Br349   1.923       .  S
C345        C346   1.411       .  A
C346       Br347   1.923       .  S
C351        C352   1.412       .  A
C351        C356   1.417       .  A
C351       Br358   1.920       .  S
C352        C353   1.416       .  A
C353        C354   1.417       .  A
C353       Br360   1.922       .  S
C354        C355   1.408       .  A
C354       Br359   1.925       .  S
C355        C356   1.411       .  A
C356       Br357   1.924       .  S
C361        C366   1.412       .  A
C361        C762   1.413       .  A
C361       Br368   1.925       .  S
C362        C363   1.407       .  A
C362        C761   1.411       .  A
C363        C364   1.411       .  A
C363       Br370   1.923       .  S
C364        C365   1.408       .  A
C364       Br369   1.923       .  S
C365        C766   1.409       .  A
C366        C765   1.409       .  A
C366       Br367   1.926       .  S
C371        C376   1.413       .  A
C371        C772   1.410       .  A
C371       Br378   1.924       .  S
C372        C373   1.409       .  A
C372        C771   1.409       .  A
C373        C374   1.411       .  A
C373       Br380   1.925       .  S
C374        C375   1.409       .  A
C374       Br379   1.923       .  S
C375        C776   1.406       .  A
C376        C775   1.410       .  A
C376       Br377   1.925       .  S
C381        C382   1.396       .  A
C381        C386   1.364       .  A
C381       Br388   1.951       .  S
C382        C383   1.401       .  A
C383        C384   1.376       .  A
C383       Br390   1.944       .  S
C384        C385   1.418       .  A
C384       Br389   1.941       .  S
C385        C386   1.435       .  A
C386       Br387   1.960       .  S
C391        C392   1.398       .  A
C391        C396   1.373       .  A
C391       Br398   1.933       .  S
C392        C393   1.432       .  A
C393        C394   1.361       .  A
C393       Br400   1.954       .  S
C394        C395   1.398       .  A
C394       Br399   1.948       .  S
C395        C396   1.416       .  A
C396       Br397   1.939       .  S
C401        C403   1.549       .  S
C401        C405   1.538       .  S
C401        C404   1.532       .  S
C401        C785   1.431       .  S
C402        C406   1.525       .  S
C402        C408   1.542       .  S
C402        C407   1.546       .  S
C402        C795   1.430       .  S
C403        C411   1.401       .  A
C404        C415   1.376       .  A
C405        C419   1.386       .  A
C406        C409   1.382       .  A
C407        C413   1.382       .  A
C408        C416   1.402       .  A
C409        H422   1.084       .  S
N410        C411   1.365       .  A
C411        H412   1.082       .  S
C413        H423   1.082       .  S
C413        N414   1.354       .  A
N414        C765   1.450       .  S
C415        H421   1.082       .  S
C416        H418   1.082       .  S
C416        N417   1.368       .  A
N417        C775   1.444       .  S
C419        H420   1.082       .  S
C424        C426   1.518       .  S
C424        C428   1.537       .  S
C424        C427   1.557       .  S
C424        C792   1.426       .  S
C425        C429   1.550       .  S
C425        C431   1.546       .  S
C425        C430   1.548       .  S
C425        C782   1.447       .  S
C426        C434   1.380       .  A
C426        C429   1.350       .  A
C427        C438   1.387       .  A
C427        C430   1.390       .  A
C428        C442   1.400       .  A
C428        C431   1.352       .  A
C429        C432   1.404       .  A
C430        C436   1.386       .  A
C431        C439   1.391       .  A
C432        H445   1.082       .  S
C432        N433   1.365       .  A
N433        C434   1.345       .  A
N433        C518   1.439       .  S
C434        H435   1.083       .  S
C436        H446   1.083       .  S
C436        N437   1.362       .  A
N437        C438   1.360       .  A
N437        C742   1.449       .  S
C438        H444   1.081       .  S
C439        H441   1.083       .  S
C439        N440   1.351       .  A
N440        C442   1.364       .  A
N440        C755   1.452       .  S
C442        H443   1.082       .  S
C447        C449   1.526       .  S
C447        C451   1.543       .  S
C447       C1250   1.553       .  S
C447        C735   1.476       .  S
C448        C452   1.554       .  S
C448        C454   1.558       .  S
C448       C1253   1.530       .  S
C448        C722   1.467       .  S
C449        C457   1.372       .  A
C450       C1247   1.554       .  S
C450        C461   1.404       .  A
C451       C1265   1.383       .  A
C452        C455   1.398       .  A
C453       C1248   1.531       .  S
C453        C459   1.386       .  A
C454       C1262   1.392       .  A
C455        H468   1.081       .  S
N456        C457   1.342       .  A
N456        C772   1.442       .  S
C457        H458   1.082       .  S
C459        H469   1.084       .  S
N460        C461   1.369       .  A
N460        C762   1.449       .  S
C461        H467   1.083       .  S
C462       C1254   1.393       .  A
C462        H464   1.081       .  S
N463        C465   1.356       .  A
N463        C531   1.431       .  S
C465       C1251   1.383       .  A
C465        H466   1.083       .  S
C470        C472   1.553       .  S
C470        C474   1.520       .  S
C470       C1273   1.554       .  S
C470        C732   1.470       .  S
C471        C475   1.554       .  S
C471        C477   1.554       .  S
C471       C1276   1.525       .  S
C471        C725   1.473       .  S
C472       C1280   1.392       .  A
C472        C475   1.389       .  A
C473       C1270   1.553   1_545  S
C473        C484   1.401       .  A
C473        C476   1.363       .  A
C474        C488   1.373       .  A
C474        C477   1.373       .  A
C475       C1278   1.389       .  A
C476       C1271   1.525   1_545  S
C476        C482   1.380       .  A
C477        C485   1.400       .  A
C478       C1275   1.389       .  A
C478        H491   1.085   1_565  S
C478        N479   1.357       .  A
N479        C480   1.360       .  A
N479        C546   1.443   1_565  S
C480       C1272   1.391       .  A
C480        H481   1.078       .  S
C482        H492   1.083       .  S
C482        N483   1.350       .  A
N483        C484   1.363       .  A
N483        C745   1.447       .  S
C484        H490   1.081       .  S
C485        H487   1.082       .  S
C485        N486   1.367       .  A
N486        C488   1.349       .  A
N486        C752   1.444       .  S
C488        H489   1.083       .  S
O493        C503   1.323       .  A
O494        C504   1.325       .  A
O494       Cu501   2.351       .  S
O495        C505   1.277       .  A
O495       Cu501   2.025       .  S
O496        C506   1.275       .  A
O496       Cu501   2.014       .  S
O497        C506   1.277       .  A
O498        C505   1.278       .  A
O499        C504   1.323       .  A
O500        C503   1.324       .  A
O500       Cu502   2.349   1_556  S
C503        C519   1.744       .  S
C504        C520   1.744       .  S
C506        N565   1.433       .  S
O507        C517   1.279       .  A
O507       Cu515   2.039       .  S
O508        C518   1.277       .  A
O508       Cu515   2.033       .  S
O509        C519   1.325       .  A
O509       Cu515   2.351       .  S
O510        C520   1.324       .  A
O510       Cu515   2.346       .  S
O511        C520   1.324       .  A
O511       Cu516   2.346       .  S
O512        C519   1.323       .  A
O512       Cu516   2.344       .  S
O513        C518   1.279       .  A
O513       Cu516   2.031       .  S
O514        C517   1.277       .  A
O514       Cu516   2.028       .  S
Cu515      Cu516   2.322       .  S
C517        N581   1.440       .  S
O521       C1331   1.277       .  A
O521       Cu529   2.022   1_655  S
O522       C1332   1.277       .  A
O522       Cu529   2.023       .  S
O523       C1333   1.325       .  A
O523       Cu529   2.353       .  S
O524       C1334   1.323       .  A
O525        C534   1.323       .  A
O525       Cu530   2.344       .  S
O526        C533   1.325       .  A
O527        C532   1.275       .  A
O528       Cu530   2.044   1_655  S
Cu529      Cu930   2.323       .  S
Cu530      Cu929   2.321   1_545  S
C531       O1321   1.277   1_545  A
C532       N1011   1.433       .  S
C532       O1322   1.277   1_545  A
C533       O1323   1.325   1_545  A
C533        C547   1.750       .  S
C534       O1324   1.322   1_545  A
C534        C548   1.739       .  S
O535        C545   1.280       .  A
O535       Cu543   2.037       .  S
O536       C1346   1.279       .  A
O536       Cu543   2.041   1_655  S
O537       C1347   1.324       .  A
O537       Cu543   2.350       .  S
O538       C1348   1.322       .  A
O538       Cu543   2.335       .  S
O539        C548   1.324       .  A
O539       Cu544   2.347       .  S
O540        C547   1.326       .  A
O540       Cu544   2.358       .  S
O541        C546   1.278       .  A
O541       Cu544   2.039   1_655  S
O542       C1345   1.276       .  A
O542       Cu544   2.028       .  S
Cu543     Cu1344   2.321       .  S
Cu544     Cu1343   2.322   1_545  S
C545        N634   1.441       .  S
C545       O1342   1.276       .  A
C546       O1336   1.278   1_545  A
C547       O1337   1.324   1_545  A
C548       O1338   1.322   1_545  A
C549        C551   1.521       .  S
C549        C553   1.551       .  S
C549        C552   1.553       .  S
C549        C712   1.465       .  S
C550        C554   1.552       .  S
C550        C556   1.527       .  S
C550        C555   1.536       .  S
C550        C702   1.475       .  S
C551        C559   1.384       .  A
C552        C563   1.381       .  A
C553        C567   1.401       .  A
C554        C557   1.402       .  A
C555        C561   1.375       .  A
C556        C564   1.377       .  A
C557        H570   1.084       .  S
N558        C559   1.357       .  A
N558        C685   1.444       .  S
C559        H560   1.082       .  S
C561        H571   1.082       .  S
N562        C563   1.352       .  A
N562        C695   1.445       .  S
C563        H569   1.083       .  S
C564        H566   1.084       .  S
N565        C567   1.366       .  A
C567        H568   1.082       .  S
C572        C574   1.550       .  S
C572        C576   1.520       .  S
C572        C575   1.565       .  S
C572        C715   1.473       .  S
C573        C577   1.529       .  S
C573        C579   1.550       .  S
C573        C578   1.550       .  S
C573        C705   1.478       .  S
C574        C582   1.400       .  A
C574        C577   1.368       .  A
C575        C586   1.390       .  A
C575        C578   1.401       .  A
C576        C590   1.383       .  A
C576        C579   1.357       .  A
C577        C580   1.380       .  A
C578        C584   1.386       .  A
C579        C587   1.399       .  A
C580        H593   1.084       .  S
C580        N581   1.347       .  A
N581        C582   1.365       .  A
C582        H583   1.082       .  S
C584        H594   1.080       .  S
C584        N585   1.360       .  A
N585        C586   1.361       .  A
N585        C672   1.449       .  S
C586        H592   1.082       .  S
C587        H589   1.083       .  S
C587        N588   1.361       .  A
N588        C590   1.353       .  A
N588        C662   1.446       .  S
C590        H591   1.082       .  S
C595        C597   1.507       .  S
C595        C599   1.558       .  S
C595       C1398   1.559       .  S
C595        C642   1.455       .  S
C596        C600   1.531       .  S
C596        C602   1.538       .  S
C596       C1401   1.530       .  S
C596        C655   1.456       .  S
C597        C605   1.386       .  A
C598       C1395   1.559   1_545  S
C598        C609   1.389       .  A
C599        C613   1.397       .  A
C600        C603   1.397       .  A
C601       C1396   1.530   1_545  S
C601        C607   1.375       .  A
C602        C610   1.381       .  A
C603        H616   1.082       .  S
C603        N604   1.362       .  A
N604        C692   1.446       .  S
C605        H606   1.083       .  S
C607        H617   1.082       .  S
C607        N608   1.350       .  A
N608        C682   1.443       .  S
C609        H615   1.083       .  S
C610        H612   1.083       .  S
N611        C613   1.366       .  A
N611        C932   1.441       .  S
C613        H614   1.081       .  S
C618        C620   1.550       .  S
C618        C622   1.546       .  S
C618       C1421   1.541       .  S
C618        C652   1.475       .  S
C619        C623   1.513       .  S
C619        C625   1.547       .  S
C619       C1424   1.552       .  S
C619        C645   1.457       .  S
C620        C628   1.404       .  A
C620        C623   1.342       .  A
C621       C1418   1.541       .  S
C621        C632   1.386       .  A
C621        C624   1.396       .  A
C622        C636   1.387       .  A
C622        C625   1.378       .  A
C623        C626   1.385       .  A
C624       C1419   1.551       .  S
C624        C630   1.388       .  A
C625        C633   1.389       .  A
C626        H639   1.083       .  S
C626        N627   1.350       .  A
N627        C628   1.362       .  A
N627        C675   1.450       .  S
C628        H629   1.082       .  S
C630        H640   1.083       .  S
C630        N631   1.357       .  A
N631        C632   1.356       .  A
N631        C665   1.447       .  S
C632        H638   1.081       .  S
C633        H635   1.082       .  S
C633        N634   1.361       .  A
N634        C636   1.356       .  A
C636        H637   1.083       .  S
C641       C1442   1.398       .  A
C641        C646   1.375       .  A
C641       Br648   1.936       .  S
C642       C1441   1.399       .  A
C642        C643   1.392       .  A
C643        C644   1.381       .  A
C643       Br650   1.931       .  S
C644        C645   1.421       .  A
C644       Br649   1.938       .  S
C645       C1446   1.423       .  A
C646       C1445   1.424       .  A
C646       Br647   1.943       .  S
C651        C652   1.442       .  A
C651        C656   1.374       .  A
C651       Br658   1.970       .  S
C652       C1453   1.430       .  A
C653       C1452   1.429       .  A
C653        C654   1.385       .  A
C653       Br660   1.943       .  S
C654       C1455   1.399       .  A
C654       Br659   1.952       .  S
C655       C1454   1.399       .  A
C655        C656   1.403       .  A
C656       Br657   1.971       .  S
C661        C662   1.409       .  A
C661        C666   1.412       .  A
C661       Br668   1.923       .  S
C662        C663   1.410       .  A
C663        C664   1.413       .  A
C663       Br670   1.922       .  S
C664        C665   1.413       .  A
C664       Br669   1.927       .  S
C665        C666   1.409       .  A
C666       Br667   1.926       .  S
C671        C672   1.408       .  A
C671        C676   1.414       .  A
C671       Br678   1.924       .  S
C672        C673   1.411       .  A
C673        C674   1.418       .  A
C673       Br680   1.924       .  S
C674        C675   1.411       .  A
C674       Br679   1.925       .  S
C675        C676   1.412       .  A
C676       Br677   1.925       .  S
C681        C686   1.417       .  A
C681       Br688   1.924       .  S
C682        C683   1.408       .  A
C683        C684   1.409       .  A
C683       Br690   1.926       .  S
C684        C685   1.409       .  A
C684       Br689   1.924       .  S
C686       Br687   1.924       .  S
C691        C696   1.415       .  A
C691       Br698   1.925       .  S
C692        C693   1.411       .  A
C693        C694   1.410       .  A
C693       Br700   1.924       .  S
C694        C695   1.406       .  A
C694       Br699   1.924       .  S
C696       Br697   1.925       .  S
C701        C702   1.417       .  A
C701        C706   1.370       .  A
C701       Br708   1.958       .  S
C702        C703   1.415       .  A
C703        C704   1.399       .  A
C703       Br710   1.934       .  S
C704        C705   1.401       .  A
C704       Br709   1.928       .  S
C705        C706   1.424       .  A
C706       Br707   1.959       .  S
C711        C712   1.396       .  A
C711        C716   1.385       .  A
C711       Br718   1.933       .  S
C712        C713   1.406       .  A
C713        C714   1.384       .  A
C713       Br720   1.938       .  S
C714        C715   1.415       .  A
C714       Br719   1.935       .  S
C715        C716   1.422       .  A
C716       Br717   1.939       .  S
C721        C722   1.407       .  A
C721        C726   1.381       .  A
C721       Br728   1.941       .  S
C722       C1523   1.400       .  A
C723       C1522   1.400       .  A
C723        C724   1.389       .  A
C723       Br730   1.933       .  S
C724       C1525   1.419       .  A
C724       Br729   1.938       .  S
C725       C1524   1.419       .  A
C725        C726   1.418       .  A
C726       Br727   1.941       .  S
C731       C1532   1.398       .  A
C731        C736   1.380       .  A
C731       Br738   1.936       .  S
C732       C1531   1.399       .  A
C732        C733   1.388       .  A
C733        C734   1.388       .  A
C733       Br740   1.931       .  S
C734        C735   1.429       .  A
C734       Br739   1.940       .  S
C735       C1536   1.425       .  A
C736       C1535   1.426       .  A
C736       Br737   1.943       .  S
C741        C742   1.410       .  A
C741        C746   1.413       .  A
C741       Br748   1.927       .  S
C742        C743   1.413       .  A
C743        C744   1.415       .  A
C743       Br750   1.924       .  S
C744        C745   1.408       .  A
C744       Br749   1.925       .  S
C745        C746   1.411       .  A
C746       Br747   1.925       .  S
C751        C752   1.407       .  A
C751        C756   1.411       .  A
C751       Br758   1.926       .  S
C752        C753   1.408       .  A
C753        C754   1.417       .  A
C753       Br760   1.923       .  S
C754        C755   1.414       .  A
C754       Br759   1.924       .  S
C755        C756   1.412       .  A
C756       Br757   1.918       .  S
C761        C766   1.414       .  A
C761       Br768   1.924       .  S
C762        C763   1.410       .  A
C763        C764   1.417       .  A
C763       Br770   1.924       .  S
C764        C765   1.414       .  A
C764       Br769   1.926       .  S
C766       Br767   1.925       .  S
C771        C776   1.412       .  A
C771       Br778   1.924       .  S
C772        C773   1.410       .  A
C773        C774   1.413       .  A
C773       Br780   1.924       .  S
C774        C775   1.409       .  A
C774       Br779   1.923       .  S
C776       Br777   1.924   1_556  S
C781        C782   1.441       .  A
C781        C786   1.360       .  A
C781       Br788   1.971       .  S
C782        C783   1.418       .  A
C783        C784   1.381       .  A
C783       Br790   1.939       .  S
C784        C785   1.402       .  A
C784       Br789   1.944       .  S
C785        C786   1.398       .  A
C786       Br787   1.962       .  S
C791        C792   1.412       .  A
C791        C796   1.372       .  A
C791       Br798   1.936       .  S
C792        C793   1.397       .  A
C793        C794   1.364       .  A
C793       Br800   1.947       .  S
C794        C795   1.432       .  A
C794       Br799   1.955       .  S
C795        C796   1.403       .  A
C796       Br797   1.938       .  S
C801        C803   1.544       .  S
C801        C805   1.544       .  S
C801        C804   1.547       .  S
C801       C1185   1.443       .  S
C802        C806   1.513       .  S
C802        C808   1.532       .  S
C802        C807   1.558       .  S
C802       C1195   1.426       .  S
C803        C811   1.401       .  A
C803       C1206   1.350       .  A
C804        C815   1.394       .  A
C804       C1207   1.375       .  A
C805        C819   1.378       .  A
C805       C1208   1.367       .  A
C806       C1203   1.353   1_554  A
C806        C809   1.372       .  A
C807       C1204   1.380   1_554  A
C807        C813   1.394       .  A
C808       C1205   1.360   1_554  A
C808        C816   1.389       .  A
C809        H822   1.084       .  S
C809       N1210   1.339   1_554  A
N810       C1209   1.345       .  A
N810        C811   1.365       .  A
N810       C1305   1.437       .  S
C811        H812   1.082       .  S
C813        H823   1.082       .  S
C813        N814   1.364       .  A
N814       C1215   1.352   1_554  A
N814       C1165   1.442       .  S
C815        H821   1.083       .  S
C815       N1214   1.366       .  A
C816        H818   1.082       .  S
C816        N817   1.358   1_554  A
N817       C1219   1.355       .  A
N817       C1175   1.443       .  S
C819        H820   1.083       .  S
C819       N1217   1.344       .  A
C824        C826   1.529       .  S
C824        C828   1.548       .  S
C824        C827   1.554       .  S
C824       C1192   1.429       .  S
C825        C829   1.553       .  S
C825        C831   1.541       .  S
C825        C830   1.541       .  S
C825       C1182   1.430       .  S
C826        C834   1.385       .  A
C826        C829   1.351       .  A
C827        C838   1.396       .  A
C827        C830   1.362       .  A
C828        C842   1.400       .  A
C828        C831   1.374       .  A
C829        C832   1.406       .  A
C830        C836   1.394       .  A
C831        C839   1.380       .  A
C832        H845   1.082       .  S
C832        N833   1.369       .  A
N833        C834   1.346       .  A
N833        C918   1.447       .  S
C834        H835   1.084       .  S
C836        H846   1.083       .  S
C836        N837   1.361       .  A
N837        C838   1.360       .  A
N837       C1142   1.455       .  S
C838        H844   1.081       .  S
C839        H841   1.083       .  S
C839        N840   1.352       .  A
N840        C842   1.368       .  A
N840       C1155   1.451       .  S
C842        H843   1.082       .  S
C847        C849   1.514   1_545  S
C847        C851   1.551       .  S
C847       C1135   1.459   1_545  S
C848        C852   1.552   1_545  S
C848        C854   1.544       .  S
C848       C1122   1.471       .  S
C849        C857   1.376       .  A
C849       C1252   1.366   1_554  A
C850        C861   1.392       .  A
C850       C1253   1.366   1_554  A
C851       C1254   1.389   1_554  A
C852       C1249   1.369       .  A
C852        C855   1.405       .  A
C853       C1250   1.371       .  A
C853        C859   1.374       .  A
C854       C1251   1.385       .  A
C855        H868   1.082       .  S
C855       N1256   1.368       .  A
N856       C1255   1.364       .  A
N856        C857   1.349   1_556  A
N856       C1172   1.443       .  S
C857        H858   1.083       .  S
C859        H869   1.082       .  S
C859       N1260   1.348       .  A
N860       C1259   1.356   1_554  A
N860        C861   1.357       .  A
N860       C1162   1.443       .  S
C861        H867   1.079       .  S
C862        H864   1.083       .  S
C862       N1263   1.356       .  A
N863       C1262   1.361       .  A
N863        C865   1.357   1_556  A
N863        C931   1.445       .  S
C865        H866   1.081       .  S
C870        C872   1.545       .  S
C870        C874   1.532       .  S
C870       C1132   1.469       .  S
C871        C875   1.559       .  S
C871        C877   1.554       .  S
C871       C1125   1.466       .  S
C872        C875   1.390       .  A
C873        C884   1.401       .  A
C873        C876   1.371       .  A
C874        C888   1.385   1_545  A
C874        C877   1.354       .  A
C876        C882   1.383       .  A
C877        C885   1.409   1_545  A
C878        H891   1.082       .  S
C878        N879   1.364       .  A
N879        C880   1.355       .  A
N879        C946   1.442       .  S
C880        H881   1.083       .  S
C882        H892   1.084       .  S
C882        N883   1.355       .  A
N883        C884   1.368       .  A
N883       C1145   1.454       .  S
C884        H890   1.081       .  S
C885        H887   1.081       .  S
C885        N886   1.369       .  A
N886        C888   1.348       .  A
N886       C1152   1.456       .  S
C888        H889   1.084       .  S
O893        C903   1.326       .  A
O893      Cu1301   2.357       .  S
O894        C904   1.324       .  A
O894       Cu901   2.349       .  S
O895        C905   1.275       .  A
O895       Cu901   2.004   1_556  S
O896        C906   1.276       .  A
O896       Cu901   2.014       .  S
O897        C906   1.278       .  A
O897      Cu1302   2.032       .  S
O898        C905   1.276       .  A
O898      Cu1302   2.022   1_556  S
O899        C904   1.324       .  A
O899      Cu1302   2.349       .  S
O900        C903   1.324       .  A
O900       Cu902   2.352       .  S
Cu901      O1293   2.343   1_554  S
Cu901     Cu1302   2.323       .  S
Cu902      O1297   2.025       .  S
Cu902      O1298   2.034       .  S
Cu902      O1299   2.345       .  S
Cu902     Cu1301   2.323       .  S
C903        C919   1.752       .  S
C904        C920   1.745       .  S
C905       N1210   1.429       .  S
C906        N965   1.435       .  S
O907        C917   1.278       .  A
O907       Cu915   2.041       .  S
O908        C918   1.279       .  A
O908       Cu915   2.046       .  S
O909        C919   1.326       .  A
O909       Cu915   2.357       .  S
O910        C920   1.325       .  A
O910       Cu915   2.350       .  S
O911        C920   1.323       .  A
O911       Cu916   2.345       .  S
O912        C919   1.325       .  A
O912       Cu916   2.354       .  S
O913        C918   1.280       .  A
O913       Cu916   2.045       .  S
O914        C917   1.281       .  A
O914       Cu916   2.050       .  S
Cu915      Cu916   2.319       .  S
C917        N981   1.447       .  S
O921       Cu929   2.041   1_655  S
O922       Cu929   2.035       .  S
O923       Cu929   2.364   1_554  S
O924      Cu1329   2.337       .  S
O925        C934   1.323       .  A
O925       Cu930   2.340       .  S
O926        C933   1.326       .  A
O926      Cu1330   2.359   1_554  S
O927        C932   1.278       .  A
O927      Cu1330   2.035       .  S
O928       C1331   1.275       .  A
O928       Cu930   2.017   1_655  S
Cu929      O1324   2.338       .  S
Cu930      O1326   2.354       .  S
Cu930      O1327   2.018       .  S
C931       O1328   1.279       .  A
C933        C947   1.757       .  S
C934        C948   1.737       .  S
O935        C945   1.278       .  A
O935       Cu943   2.037       .  S
O936       Cu943   2.032   1_655  S
O937       Cu943   2.366       .  S
O938       Cu943   2.340       .  S
O939        C948   1.322       .  A
O939       Cu944   2.336       .  S
O940        C947   1.325       .  A
O940       Cu944   2.357       .  S
O941        C946   1.278       .  A
O941       Cu944   2.038   1_655  S
O942       Cu944   2.056       .  S
C945       N1034   1.447       .  S
C949        C951   1.524       .  S
C949        C953   1.546       .  S
C949        C952   1.566       .  S
C949       C1112   1.478       .  S
C950        C954   1.543       .  S
C950        C956   1.522       .  S
C950        C955   1.557       .  S
C950       C1102   1.477       .  S
C951        C959   1.378       .  A
C951       C1354   1.364   1_554  A
C952        C963   1.394       .  A
C952       C1355   1.397   1_554  A
C953        C967   1.398       .  A
C953       C1356   1.367   1_554  A
C954       C1351   1.359       .  A
C954        C957   1.392       .  A
C955       C1352   1.397       .  A
C955        C961   1.394       .  A
C956       C1353   1.370       .  A
C956        C964   1.373       .  A
C957        H970   1.083       .  S
C957       N1358   1.357       .  A
N958       C1357   1.366       .  A
N958        C959   1.349   1_556  A
N958       C1085   1.447       .  S
C959        H960   1.082       .  S
C961        H971   1.080       .  S
C961       N1362   1.365       .  A
N962       C1361   1.354   1_554  A
N962        C963   1.365       .  A
N962       C1095   1.444       .  S
C963        H969   1.082       .  S
C964        H966   1.084       .  S
C964       N1365   1.342       .  A
N965       C1364   1.345   1_554  A
N965        C967   1.363       .  A
C967        H968   1.082       .  S
C972        C974   1.567       .  S
C972        C976   1.530       .  S
C972        C975   1.555       .  S
C972       C1115   1.476       .  S
C973        C977   1.528       .  S
C973        C979   1.553       .  S
C973        C978   1.527       .  S
C973       C1105   1.469       .  S
C974        C982   1.411       .  A
C974        C977   1.375       .  A
C975        C986   1.391       .  A
C975        C978   1.374       .  A
C976        C990   1.379       .  A
C976        C979   1.374       .  A
C977        C980   1.376       .  A
C978        C984   1.380       .  A
C979        C987   1.399       .  A
C980        H993   1.084       .  S
C980        N981   1.341       .  A
N981        C982   1.374       .  A
C982        H983   1.081       .  S
C984        H994   1.083       .  S
C984        N985   1.353       .  A
N985        C986   1.357       .  A
N985       C1072   1.440       .  S
C986        H992   1.081       .  S
C987        H989   1.082       .  S
C987        N988   1.367       .  A
N988        C990   1.354       .  A
N988       C1062   1.450       .  S
C990        H991   1.083       .  S
C995        C997   1.527       .  S
C995        C999   1.544       .  S
C995       C1042   1.463       .  S
C996       C1000   1.550       .  S
C996       C1002   1.531   1_565  S
C996       C1055   1.480       .  S
C997       C1005   1.382       .  A
C997       C1400   1.350       .  A
C998       C1009   1.397       .  A
C998       C1401   1.390       .  A
C999       C1013   1.389       .  A
C999       C1402   1.375       .  A
C1000      C1397   1.345   1_554  A
C1000      C1003   1.396       .  A
C1001      C1398   1.396   1_554  A
C1001      C1007   1.394       .  A
C1002      C1399   1.377   1_544  A
C1002      C1010   1.380       .  A
C1003      H1016   1.080       .  S
C1003      N1004   1.355       .  A
N1004      C1405   1.355   1_554  A
N1004      C1092   1.444       .  S
C1005      H1006   1.082       .  S
C1005      N1404   1.351       .  A
C1007      H1017   1.081       .  S
C1007      N1008   1.360   1_554  A
N1008      C1409   1.356       .  A
N1008      C1082   1.452       .  S
C1009      H1015   1.083       .  S
C1009      N1408   1.365       .  A
C1010      H1012   1.083       .  S
C1010      N1411   1.351   1_554  A
N1011      C1410   1.350       .  A
N1011      C1013   1.360   1_545  A
C1013      H1014   1.082       .  S
C1018      C1020   1.531       .  S
C1018      C1022   1.544       .  S
C1018      C1052   1.456       .  S
C1019      C1023   1.521       .  S
C1019      C1025   1.559       .  S
C1019      C1045   1.461       .  S
C1020      C1028   1.389       .  A
C1020      C1023   1.358       .  A
C1021      C1032   1.387       .  A
C1021      C1024   1.372       .  A
C1022      C1036   1.385       .  A
C1022      C1025   1.384       .  A
C1023      C1026   1.380       .  A
C1024      C1030   1.397       .  A
C1025      C1033   1.399       .  A
C1026      H1039   1.082       .  S
C1026      N1027   1.355       .  A
N1027      C1028   1.362       .  A
N1027      C1075   1.445       .  S
C1028      H1029   1.083       .  S
C1030      H1040   1.079       .  S
C1030      N1031   1.360       .  A
N1031      C1032   1.353       .  A
N1031      C1065   1.448       .  S
C1032      H1038   1.083       .  S
C1033      H1035   1.081       .  S
C1033      N1034   1.367       .  A
N1034      C1036   1.352       .  A
C1036      H1037   1.083       .  S
C1041      C1046   1.379       .  A
C1041     Br1048   1.942       .  S
C1042      C1043   1.428       .  A
C1043      C1044   1.382       .  A
C1043     Br1050   1.940       .  S
C1044      C1045   1.385       .  A
C1044     Br1049   1.929       .  S
C1046     Br1047   1.939       .  S
C1051      C1052   1.388       .  A
C1051      C1056   1.380       .  A
C1051     Br1058   1.959       .  S
C1053      C1054   1.380       .  A
C1053     Br1060   1.947       .  S
C1054     Br1059   1.937       .  S
C1055      C1056   1.456       .  A
C1056     Br1057   1.964       .  S
C1061      C1062   1.412       .  A
C1061      C1066   1.418       .  A
C1061     Br1068   1.923       .  S
C1062      C1063   1.411       .  A
C1063      C1064   1.414       .  A
C1063     Br1070   1.925       .  S
C1064      C1065   1.409       .  A
C1064     Br1069   1.925       .  S
C1065      C1066   1.409       .  A
C1066     Br1067   1.923       .  S
C1071      C1072   1.406       .  A
C1071      C1076   1.411       .  A
C1071     Br1078   1.927       .  S
C1072      C1073   1.408       .  A
C1073      C1074   1.411       .  A
C1073     Br1080   1.926       .  S
C1074      C1075   1.411       .  A
C1074     Br1079   1.926       .  S
C1075      C1076   1.413       .  A
C1076     Br1077   1.926       .  S
C1081      C1482   1.410       .  A
C1081      C1086   1.416       .  A
C1081     Br1088   1.922       .  S
C1082      C1481   1.412       .  A
C1082      C1083   1.414       .  A
C1083      C1084   1.414       .  A
C1083     Br1090   1.925       .  S
C1084      C1085   1.407       .  A
C1084     Br1089   1.924       .  S
C1085      C1486   1.411       .  A
C1086      C1485   1.409       .  A
C1086     Br1087   1.924       .  S
C1091      C1492   1.410       .  A
C1091      C1096   1.415       .  A
C1091     Br1098   1.925       .  S
C1092      C1491   1.411       .  A
C1092      C1093   1.408       .  A
C1093      C1094   1.411       .  A
C1093     Br1100   1.925       .  S
C1094      C1095   1.408       .  A
C1094     Br1099   1.923       .  S
C1095      C1496   1.410       .  A
C1096      C1495   1.411       .  A
C1096     Br1097   1.924       .  S
C1101      C1102   1.431       .  A
C1101      C1106   1.373       .  A
C1101     Br1108   1.954       .  S
C1102      C1103   1.395       .  A
C1103      C1104   1.392       .  A
C1103     Br1110   1.928       .  S
C1104      C1105   1.427       .  A
C1104     Br1109   1.944       .  S
C1105      C1106   1.406       .  A
C1106     Br1107   1.951       .  S
C1111      C1112   1.427       .  A
C1111      C1116   1.387       .  A
C1111     Br1118   1.938       .  S
C1112      C1113   1.417       .  A
C1113      C1114   1.387       .  A
C1113     Br1120   1.937       .  S
C1114      C1115   1.409       .  A
C1114     Br1119   1.938       .  S
C1115      C1116   1.387       .  A
C1116     Br1117   1.927       .  S
C1121      C1122   1.415       .  A
C1121      C1126   1.379       .  A
C1121     Br1128   1.939       .  S
C1123      C1124   1.388       .  A
C1123     Br1130   1.938       .  S
C1124     Br1129   1.931       .  S
C1125      C1126   1.408       .  A
C1126     Br1127   1.936       .  S
C1131      C1136   1.377       .  A
C1131     Br1138   1.946       .  S
C1132      C1133   1.434   1_545  A
C1133      C1134   1.383       .  A
C1133     Br1140   1.940       .  S
C1134      C1135   1.384       .  A
C1134     Br1139   1.935       .  S
C1136     Br1137   1.941       .  S
C1141      C1142   1.410       .  A
C1141      C1146   1.416       .  A
C1141     Br1148   1.923       .  S
C1142      C1143   1.414       .  A
C1143      C1144   1.421       .  A
C1143     Br1150   1.924       .  S
C1144      C1145   1.412       .  A
C1144     Br1149   1.923       .  S
C1145      C1146   1.411       .  A
C1146     Br1147   1.923       .  S
C1151      C1152   1.412       .  A
C1151      C1156   1.417       .  A
C1151     Br1158   1.920       .  S
C1152      C1153   1.417       .  A
C1153      C1154   1.417       .  A
C1153     Br1160   1.922       .  S
C1154      C1155   1.407       .  A
C1154     Br1159   1.925       .  S
C1155      C1156   1.412       .  A
C1156     Br1157   1.925       .  S
C1161      C1562   1.413       .  A
C1161      C1166   1.412       .  A
C1161     Br1168   1.925       .  S
C1162      C1561   1.410       .  A
C1162      C1163   1.407       .  A
C1163      C1164   1.411       .  A
C1163     Br1170   1.923       .  S
C1164      C1165   1.408       .  A
C1164     Br1169   1.923       .  S
C1165      C1566   1.409       .  A
C1166      C1565   1.409       .  A
C1166     Br1167   1.926       .  S
C1171      C1572   1.410       .  A
C1171      C1176   1.413       .  A
C1171     Br1178   1.924       .  S
C1172      C1571   1.410       .  A
C1172      C1173   1.409       .  A
C1173      C1174   1.412       .  A
C1173     Br1180   1.925       .  S
C1174      C1175   1.410       .  A
C1174     Br1179   1.923       .  S
C1175      C1576   1.407       .  A
C1176      C1575   1.410       .  A
C1176     Br1177   1.925       .  S
C1181      C1182   1.396       .  A
C1181      C1186   1.364       .  A
C1181     Br1188   1.951       .  S
C1182      C1183   1.401       .  A
C1183      C1184   1.376       .  A
C1183     Br1190   1.944       .  S
C1184      C1185   1.418       .  A
C1184     Br1189   1.940       .  S
C1185      C1186   1.436       .  A
C1186     Br1187   1.961       .  S
C1191      C1192   1.397       .  A
C1191      C1196   1.373       .  A
C1191     Br1198   1.933       .  S
C1192      C1193   1.432       .  A
C1193      C1194   1.362       .  A
C1193     Br1200   1.954       .  S
C1194      C1195   1.399       .  A
C1194     Br1199   1.948       .  S
C1195      C1196   1.416       .  A
C1196     Br1197   1.939       .  S
C1201      C1203   1.548       .  S
C1201      C1205   1.538       .  S
C1201      C1204   1.531       .  S
C1201      C1585   1.431       .  S
C1202      C1206   1.524       .  S
C1202      C1208   1.541       .  S
C1202      C1207   1.546       .  S
C1202      C1595   1.429       .  S
C1203      C1211   1.401       .  A
C1204      C1215   1.376       .  A
C1205      C1219   1.387       .  A
C1206      C1209   1.382       .  A
C1207      C1213   1.382       .  A
C1208      C1216   1.402       .  A
C1209      H1222   1.084       .  S
N1210      C1211   1.365       .  A
C1211      H1212   1.082       .  S
C1213      H1223   1.082       .  S
C1213      N1214   1.353       .  A
N1214      C1565   1.449       .  S
C1215      H1221   1.082       .  S
C1216      H1218   1.082       .  S
C1216      N1217   1.367       .  A
N1217      C1575   1.444       .  S
C1219      H1220   1.082       .  S
C1224      C1226   1.518       .  S
C1224      C1228   1.536       .  S
C1224      C1227   1.557       .  S
C1224      C1592   1.425       .  S
C1225      C1229   1.551       .  S
C1225      C1231   1.545       .  S
C1225      C1230   1.548       .  S
C1225      C1582   1.447       .  S
C1226      C1234   1.380       .  A
C1226      C1229   1.350       .  A
C1227      C1238   1.388       .  A
C1227      C1230   1.390       .  A
C1228      C1242   1.399       .  A
C1228      C1231   1.352       .  A
C1229      C1232   1.405       .  A
C1230      C1236   1.386       .  A
C1231      C1239   1.390       .  A
C1232      H1245   1.082       .  S
C1232      N1233   1.365       .  A
N1233      C1234   1.345       .  A
N1233      C1318   1.440       .  S
C1234      H1235   1.083       .  S
C1236      H1246   1.083       .  S
C1236      N1237   1.362       .  A
N1237      C1238   1.360       .  A
N1237      C1542   1.449       .  S
C1238      H1244   1.081       .  S
C1239      H1241   1.083       .  S
C1239      N1240   1.350       .  A
N1240      C1242   1.364       .  A
N1240      C1555   1.450       .  S
C1242      H1243   1.082       .  S
C1247      C1249   1.527   1_545  S
C1247      C1251   1.543       .  S
C1247      C1535   1.476   1_545  S
C1248      C1252   1.555   1_545  S
C1248      C1254   1.558       .  S
C1248      C1522   1.468       .  S
C1249      C1257   1.372       .  A
C1250      C1261   1.403       .  A
C1252      C1255   1.398       .  A
C1253      C1259   1.385       .  A
C1255      H1268   1.081       .  S
N1256      C1257   1.342       .  A
N1256      C1572   1.442       .  S
C1257      H1258   1.082       .  S
C1259      H1269   1.084       .  S
N1260      C1261   1.369       .  A
N1260      C1562   1.448       .  S
C1261      H1267   1.083       .  S
C1262      H1264   1.082       .  S
N1263      C1265   1.356       .  A
N1263      C1331   1.432       .  S
C1265      H1266   1.082       .  S
C1270      C1272   1.551       .  S
C1270      C1274   1.519       .  S
C1270      C1532   1.470       .  S
C1271      C1275   1.554       .  S
C1271      C1277   1.554       .  S
C1271      C1525   1.474   1_565  S
C1272      C1275   1.389       .  A
C1273      C1284   1.402       .  A
C1273      C1276   1.362       .  A
C1274      C1288   1.372       .  A
C1274      C1277   1.373       .  A
C1276      C1282   1.381       .  A
C1277      C1285   1.400       .  A
C1278      H1291   1.082       .  S
C1278      N1279   1.358       .  A
N1279      C1280   1.360       .  A
N1279      C1346   1.445       .  S
C1280      H1281   1.081       .  S
C1282      H1292   1.083       .  S
C1282      N1283   1.350       .  A
N1283      C1284   1.363       .  A
N1283      C1545   1.447       .  S
C1284      H1290   1.081       .  S
C1285      H1287   1.082       .  S
C1285      N1286   1.367       .  A
N1286      C1288   1.349       .  A
N1286      C1552   1.443       .  S
C1288      H1289   1.083       .  S
O1293      C1303   1.323       .  A
O1294      C1304   1.325       .  A
O1294     Cu1301   2.352       .  S
O1295      C1305   1.277       .  A
O1295     Cu1301   2.024       .  S
O1296      C1306   1.275       .  A
O1296     Cu1301   2.014       .  S
O1297      C1306   1.277       .  A
O1298      C1305   1.278       .  A
O1299      C1304   1.323       .  A
O1300      C1303   1.325       .  A
O1300     Cu1302   2.349   1_556  S
C1303      C1319   1.745       .  S
C1304      C1320   1.745       .  S
C1306      N1365   1.433       .  S
O1307      C1317   1.279       .  A
O1307     Cu1315   2.038       .  S
O1308      C1318   1.277       .  A
O1308     Cu1315   2.034       .  S
O1309      C1319   1.325       .  A
O1309     Cu1315   2.352       .  S
O1310      C1320   1.324       .  A
O1310     Cu1315   2.347       .  S
O1311      C1320   1.324       .  A
O1311     Cu1316   2.347       .  S
O1312      C1319   1.323       .  A
O1312     Cu1316   2.344       .  S
O1313      C1318   1.279       .  A
O1313     Cu1316   2.032       .  S
O1314      C1317   1.277       .  A
O1314     Cu1316   2.028       .  S
Cu1315    Cu1316   2.322       .  S
C1317      N1381   1.440       .  S
O1321     Cu1329   2.021   1_655  S
O1322     Cu1329   2.022       .  S
O1323     Cu1329   2.353       .  S
O1325      C1334   1.323       .  A
O1325     Cu1330   2.344       .  S
O1326      C1333   1.325       .  A
O1327      C1332   1.275       .  A
O1328     Cu1330   2.042   1_655  S
C1333      C1347   1.750       .  S
C1334      C1348   1.740       .  S
O1335      C1345   1.280   1_565  A
O1335     Cu1343   2.034       .  S
O1336     Cu1343   2.039   1_655  S
O1337     Cu1343   2.350       .  S
O1338     Cu1343   2.335       .  S
O1339      C1348   1.324       .  A
O1339     Cu1344   2.348       .  S
O1340      C1347   1.326       .  A
O1340     Cu1344   2.358       .  S
O1341      C1346   1.279       .  A
O1341     Cu1344   2.041   1_655  S
O1342     Cu1344   2.032       .  S
C1345      N1434   1.440       .  S
C1349      C1351   1.521       .  S
C1349      C1353   1.550       .  S
C1349      C1352   1.553       .  S
C1349      C1512   1.466       .  S
C1350      C1354   1.552       .  S
C1350      C1356   1.527       .  S
C1350      C1355   1.536       .  S
C1350      C1502   1.474       .  S
C1351      C1359   1.384       .  A
C1352      C1363   1.381       .  A
C1353      C1367   1.400       .  A
C1354      C1357   1.402       .  A
C1355      C1361   1.374       .  A
C1356      C1364   1.377       .  A
C1357      H1370   1.084       .  S
N1358      C1359   1.357       .  A
N1358      C1485   1.444       .  S
C1359      H1360   1.082       .  S
C1361      H1371   1.082       .  S
N1362      C1363   1.352       .  A
N1362      C1495   1.445       .  S
C1363      H1369   1.083       .  S
C1364      H1366   1.084       .  S
N1365      C1367   1.366       .  A
C1367      H1368   1.082       .  S
C1372      C1374   1.550       .  S
C1372      C1376   1.520       .  S
C1372      C1375   1.565       .  S
C1372      C1515   1.473       .  S
C1373      C1377   1.528       .  S
C1373      C1379   1.549       .  S
C1373      C1378   1.548       .  S
C1373      C1505   1.477       .  S
C1374      C1382   1.400       .  A
C1374      C1377   1.368       .  A
C1375      C1386   1.390       .  A
C1375      C1378   1.401       .  A
C1376      C1390   1.382       .  A
C1376      C1379   1.357       .  A
C1377      C1380   1.380       .  A
C1378      C1384   1.385       .  A
C1379      C1387   1.398       .  A
C1380      H1393   1.084       .  S
C1380      N1381   1.346       .  A
N1381      C1382   1.366       .  A
C1382      H1383   1.082       .  S
C1384      H1394   1.080       .  S
C1384      N1385   1.360       .  A
N1385      C1386   1.361       .  A
N1385      C1472   1.448       .  S
C1386      H1392   1.082       .  S
C1387      H1389   1.083       .  S
C1387      N1388   1.360       .  A
N1388      C1390   1.352       .  A
N1388      C1462   1.444       .  S
C1390      H1391   1.082       .  S
C1395      C1397   1.506       .  S
C1395      C1399   1.558       .  S
C1395      C1442   1.454       .  S
C1396      C1400   1.531       .  S
C1396      C1402   1.538       .  S
C1396      C1455   1.456   1_565  S
C1397      C1405   1.386       .  A
C1398      C1409   1.389       .  A
C1399      C1413   1.398       .  A
C1400      C1403   1.396       .  A
C1401      C1407   1.375       .  A
C1402      C1410   1.381   1_565  A
C1403      H1416   1.082       .  S
C1403      N1404   1.361       .  A
N1404      C1492   1.445       .  S
C1405      H1406   1.083       .  S
C1407      H1417   1.082       .  S
C1407      N1408   1.350       .  A
N1408      C1482   1.443       .  S
C1409      H1415   1.083       .  S
C1410      H1412   1.083       .  S
N1411      C1413   1.366   1_545  A
C1413      H1414   1.081       .  S
C1418      C1420   1.549   1_545  S
C1418      C1422   1.545       .  S
C1418      C1452   1.475       .  S
C1419      C1423   1.512   1_545  S
C1419      C1425   1.547       .  S
C1419      C1445   1.456   1_545  S
C1420      C1428   1.403       .  A
C1420      C1423   1.341       .  A
C1421      C1432   1.386       .  A
C1421      C1424   1.396       .  A
C1422      C1436   1.386       .  A
C1422      C1425   1.379       .  A
C1423      C1426   1.384       .  A
C1424      C1430   1.388       .  A
C1425      C1433   1.389       .  A
C1426      H1439   1.083       .  S
C1426      N1427   1.350       .  A
N1427      C1428   1.362       .  A
N1427      C1475   1.450       .  S
C1428      H1429   1.082       .  S
C1430      H1440   1.083       .  S
C1430      N1431   1.357       .  A
N1431      C1432   1.355       .  A
N1431      C1465   1.446       .  S
C1432      H1438   1.081       .  S
C1433      H1435   1.082       .  S
C1433      N1434   1.361       .  A
N1434      C1436   1.355       .  A
C1436      H1437   1.083       .  S
C1441      C1446   1.376       .  A
C1441     Br1448   1.936       .  S
C1442      C1443   1.392       .  A
C1443      C1444   1.381       .  A
C1443     Br1450   1.931       .  S
C1444      C1445   1.421       .  A
C1444     Br1449   1.937       .  S
C1446     Br1447   1.942       .  S
C1451      C1452   1.442   1_565  A
C1451      C1456   1.373       .  A
C1451     Br1458   1.971       .  S
C1453      C1454   1.386       .  A
C1453     Br1460   1.944       .  S
C1454     Br1459   1.953       .  S
C1455      C1456   1.403   1_545  A
C1456     Br1457   1.970       .  S
C1461      C1462   1.408       .  A
C1461      C1466   1.412       .  A
C1461     Br1468   1.923       .  S
C1462      C1463   1.409       .  A
C1463      C1464   1.412       .  A
C1463     Br1470   1.922       .  S
C1464      C1465   1.412       .  A
C1464     Br1469   1.927       .  S
C1465      C1466   1.409       .  A
C1466     Br1467   1.924       .  S
C1471      C1472   1.407       .  A
C1471      C1476   1.413       .  A
C1471     Br1478   1.925       .  S
C1472      C1473   1.411       .  A
C1473      C1474   1.417       .  A
C1473     Br1480   1.924       .  S
C1474      C1475   1.412       .  A
C1474     Br1479   1.925       .  S
C1475      C1476   1.413       .  A
C1476     Br1477   1.925       .  S
C1481      C1486   1.417       .  A
C1481     Br1488   1.924       .  S
C1482      C1483   1.408       .  A
C1483      C1484   1.410       .  A
C1483     Br1490   1.925       .  S
C1484      C1485   1.409       .  A
C1484     Br1489   1.923       .  S
C1486     Br1487   1.924       .  S
C1491      C1496   1.414       .  A
C1491     Br1498   1.925       .  S
C1492      C1493   1.410       .  A
C1493      C1494   1.411       .  A
C1493     Br1500   1.924       .  S
C1494      C1495   1.407       .  A
C1494     Br1499   1.924       .  S
C1496     Br1497   1.924       .  S
C1501      C1502   1.417       .  A
C1501      C1506   1.369       .  A
C1501     Br1508   1.958       .  S
C1502      C1503   1.416       .  A
C1503      C1504   1.398       .  A
C1503     Br1510   1.934       .  S
C1504      C1505   1.401       .  A
C1504     Br1509   1.928       .  S
C1505      C1506   1.424       .  A
C1506     Br1507   1.959       .  S
C1511      C1512   1.397       .  A
C1511      C1516   1.385       .  A
C1511     Br1518   1.934       .  S
C1512      C1513   1.407       .  A
C1513      C1514   1.385       .  A
C1513     Br1520   1.937       .  S
C1514      C1515   1.415       .  A
C1514     Br1519   1.936       .  S
C1515      C1516   1.422       .  A
C1516     Br1517   1.939       .  S
C1521      C1522   1.407       .  A
C1521      C1526   1.381       .  A
C1521     Br1528   1.941       .  S
C1523      C1524   1.389       .  A
C1523     Br1530   1.933       .  S
C1524     Br1529   1.939       .  S
C1525      C1526   1.418       .  A
C1526     Br1527   1.940   1_545  S
C1531      C1536   1.380       .  A
C1531     Br1538   1.936       .  S
C1532      C1533   1.388       .  A
C1533      C1534   1.388       .  A
C1533     Br1540   1.931       .  S
C1534      C1535   1.429       .  A
C1534     Br1539   1.940       .  S
C1536     Br1537   1.943       .  S
C1541      C1542   1.410       .  A
C1541      C1546   1.413       .  A
C1541     Br1548   1.927       .  S
C1542      C1543   1.413       .  A
C1543      C1544   1.416       .  A
C1543     Br1550   1.924       .  S
C1544      C1545   1.409       .  A
C1544     Br1549   1.925       .  S
C1545      C1546   1.412       .  A
C1546     Br1547   1.924       .  S
C1551      C1552   1.407       .  A
C1551      C1556   1.411       .  A
C1551     Br1558   1.926       .  S
C1552      C1553   1.408       .  A
C1553      C1554   1.416       .  A
C1553     Br1560   1.923       .  S
C1554      C1555   1.413       .  A
C1554     Br1559   1.924       .  S
C1555      C1556   1.412       .  A
C1556     Br1557   1.918       .  S
C1561      C1566   1.414       .  A
C1561     Br1568   1.924       .  S
C1562      C1563   1.410       .  A
C1563      C1564   1.417       .  A
C1563     Br1570   1.924       .  S
C1564      C1565   1.414       .  A
C1564     Br1569   1.926       .  S
C1566     Br1567   1.925       .  S
C1571      C1576   1.413       .  A
C1571     Br1578   1.924       .  S
C1572      C1573   1.410       .  A
C1573      C1574   1.412       .  A
C1573     Br1580   1.924       .  S
C1574      C1575   1.409       .  A
C1574     Br1579   1.923       .  S
C1576     Br1577   1.923   1_556  S
C1581      C1582   1.440       .  A
C1581      C1586   1.359       .  A
C1581     Br1588   1.971       .  S
C1582      C1583   1.417       .  A
C1583      C1584   1.381       .  A
C1583     Br1590   1.939       .  S
C1584      C1585   1.403       .  A
C1584     Br1589   1.944       .  S
C1585      C1586   1.399       .  A
C1586     Br1587   1.962       .  S
C1591      C1592   1.413       .  A
C1591      C1596   1.371       .  A
C1591     Br1598   1.937       .  S
C1592      C1593   1.398       .  A
C1593      C1594   1.364       .  A
C1593     Br1600   1.947       .  S
C1594      C1595   1.432       .  A
C1594     Br1599   1.955       .  S
C1595      C1596   1.403       .  A
C1596     Br1597   1.938       .  S
