geometry optimzed in LAMMPS
_audit_creation_date              2020-11-30 
_audit_creation_method            'lammps2cif' 
_symmetry_space_group_name_H-M    'P1' 
_symmetry_Int_Tables_number       1 
_symmetry_cell_setting            triclinic 
loop_ 
_symmetry_equiv_pos_as_xyz 
  x,y,z 
_cell_length_a                    49.59909874 
_cell_length_b                    40.97968532685132 
_cell_length_c                    28.62430412761525 
_cell_angle_alpha                 90.99502603327257 
_cell_angle_beta                  90.29013654655532 
_cell_angle_gamma                 88.62752359686165 
loop_ 
_atom_site_label 
_atom_site_type_symbol 
_atom_site_fract_x 
_atom_site_fract_y 
_atom_site_fract_z 
_atom_site_charge 
C1          C  0.71671780  0.26860719  0.46177813     0.30400
C2          C  0.71027023  0.23840459  0.03815345     0.30400
C3          C  0.72278706  0.29098358  0.50219316    -0.05800
C4          C  0.68691847  0.25891460  0.47009241    -0.06600
C5          C  0.73257180  0.23611373  0.47341295    -0.06500
C6          C  0.71511584  0.27525301  0.04773772    -0.05800
C7          C  0.68421998  0.23711371  0.00726656    -0.06600
C8          C  0.73193910  0.22896444  0.00319471    -0.06500
C9          C  0.73435506  0.29322228  0.07319550    -0.31800
N10         N  0.73627282  0.32372349  0.05531929     0.14700
C11         C  0.73411984  0.32111340  0.50696491    -0.31900
H12         H  0.74003261  0.33696316  0.47912468     0.16600
C13         C  0.65919000  0.22328587  0.00953630    -0.30800
N14         N  0.64388647  0.24356472  0.47605351     0.13400
C15         C  0.66171513  0.25869493  0.44802896    -0.30800
C16         C  0.74066553  0.19791116  0.99143044    -0.31100
N17         N  0.74661298  0.19613760  0.94613226     0.13900
H18         H  0.73963399  0.17635165  0.01246970     0.16500
C19         C  0.74005679  0.20937388  0.44581025    -0.31100
H20         H  0.74182071  0.20907272  0.40872812     0.16500
H21         H  0.65641332  0.26892999  0.41461905     0.16500
H22         H  0.74899307  0.28332574  0.09716959     0.16600
H23         H  0.65226251  0.20750530  0.03656552     0.16500
C24         C  0.70900529  0.19995761  0.21483572     0.30400
C25         C  0.71796235  0.23141181  0.29615741     0.30400
C26         C  0.71657120  0.23642654  0.21176664    -0.05800
C27         C  0.68549575  0.19974706  0.25011138    -0.06600
C28         C  0.73240989  0.18541524  0.24338491    -0.06500
C29         C  0.71975016  0.25213818  0.25366404    -0.05800
C30         C  0.69007049  0.21632520  0.29171764    -0.06600
C31         C  0.73766692  0.20202470  0.28567635    -0.06500
C32         C  0.73204456  0.28126719  0.24694690    -0.31800
N33         N  0.73791276  0.28350292  0.20158684     0.14700
C34         C  0.73003941  0.25555300  0.18000832    -0.31900
H35         H  0.73596478  0.24826706  0.14561867     0.16600
C36         C  0.66555701  0.22011728  0.31409070    -0.30800
N37         N  0.64630484  0.20623032  0.28721580     0.13400
C38         C  0.65848103  0.19235362  0.24913764    -0.30800
C39         C  0.75136165  0.17973528  0.31359868    -0.31100
N40         N  0.75434963  0.15098159  0.28997442     0.13900
H41         H  0.75768049  0.18338038  0.34913440     0.16500
C42         C  0.74200780  0.15379438  0.24798155    -0.31100
H43         H  0.73890271  0.13371879  0.22362126     0.16500
H44         H  0.64792470  0.18051062  0.22069298     0.16500
H45         H  0.73895941  0.29810731  0.27377455     0.16600
H46         H  0.66142554  0.23443244  0.34537882     0.16500
C47         C  0.83275158  0.47578859  0.46603754     0.30400
C48         C  0.82791083  0.51725314  0.04558429     0.30400
C49         C  0.80972139  0.46950491  0.49879924    -0.05800
C50         C  0.85774898  0.47408358  0.49956715    -0.06600
C51         C  0.81747125  0.01435009  0.45509635    -0.06500
C52         C  0.80980726  0.48786841  0.03038913    -0.05800
C53         C  0.85679568  0.50324699  0.03415711    -0.06600
C54         C  0.80912251  0.03677490  0.00161206    -0.06500
C55         C  0.79876650  0.46231068  0.05433128    -0.31800
N56         N  0.79602836  0.43590531  0.02598733     0.14700
C57         C  0.79888572  0.44038723  0.51081280    -0.31900
H58         H  0.79961343  0.41774103  0.49088523     0.16600
C59         C  0.86927864  0.99884330  0.05418392    -0.30800
N60         N  0.88731678  0.98309673  0.02549503     0.13400
C61         C  0.87436161  0.96257502  0.49490033    -0.30800
C62         C  0.79673641  0.06707460  0.99788470    -0.31100
N63         N  0.79267139  0.07311142  0.95210946     0.13900
H64         H  0.79026553  0.08308980  0.02635775     0.16500
C65         C  0.79859297  0.03223809  0.42804309    -0.31100
H66         H  0.78545323  0.02244171  0.40139656     0.16500
H67         H  0.88248495  0.94673990  0.46765298     0.16500
H68         H  0.79402146  0.46171618  0.09059229     0.16600
H69         H  0.87490100  0.00947358  0.08741822     0.16500
C70         C  0.82282476  0.97262049  0.20126973     0.30400
C71         C  0.83089421  0.94278343  0.28324479     0.30400
C72         C  0.81705263  0.44253023  0.21181706    -0.05800
C73         C  0.86449187  0.45465428  0.21273747    -0.06600
C74         C  0.81668970  0.99317125  0.24399826    -0.06500
C75         C  0.82004177  0.42640474  0.25440219    -0.05800
C76         C  0.86695348  0.43784143  0.25436830    -0.06600
C77         C  0.82064917  0.97882032  0.28592354    -0.06500
C78         C  0.81080531  0.39531267  0.24796854    -0.31800
N79         N  0.80106676  0.39225051  0.20406393     0.14700
C80         C  0.80546181  0.42028405  0.18115207    -0.31900
H81         H  0.80201458  0.42334387  0.14427639     0.16600
C82         C  0.88250911  0.93435670  0.25384954    -0.30800
N83         N  0.89526276  0.94644109  0.21661944     0.13400
C84         C  0.87687545  0.96181569  0.18890194    -0.30800
C85         C  0.81338376  0.00251130  0.31916942    -0.31100
N86         N  0.80502159  0.03016322  0.29715060     0.13900
H87         H  0.81470723  0.99975094  0.35590583     0.16500
C88         C  0.80708857  0.02448251  0.25106501    -0.31100
H89         H  0.80151531  0.04200044  0.22459535     0.16500
H90         H  0.88173684  0.97455918  0.15740899     0.16500
H91         H  0.81198543  0.37575396  0.27288847     0.16600
H92         H  0.89258684  0.92154836  0.28195409     0.16500
O93         O  0.55698399  0.19228640  0.00664789    -0.74000
O94         O  0.48079811  0.20233675  0.51550189    -0.74100
O95         O  0.51693035  0.19774276  0.43889738    -0.74100
O96         O  0.51960796  0.19596759  0.08009611    -0.74200
O97         O  0.52466544  0.24929558  0.08350613    -0.74100
O98         O  0.51804862  0.25147988  0.43771998    -0.74100
O99         O  0.48360305  0.25651828  0.01771368    -0.74100
O100        O  0.55937239  0.25078952  0.50256434    -0.74100
Ni101      Ni  0.51858509  0.19577825  0.00848515     1.25400
Ni102      Ni  0.52228143  0.25312288  0.01221764     1.25400
C103        C  0.57120978  0.21771682  0.00405926     0.88100
C104        C  0.46925710  0.23094973  0.01708190     0.88100
C105        C  0.51740340  0.22399268  0.41358998     0.88100
C106        C  0.52247532  0.22209154  0.10639407     0.88300
O107        O  0.55375949  0.18381587  0.26243397    -0.74000
O108        O  0.47904390  0.20411832  0.25417519    -0.74100
O109        O  0.51824351  0.19463516  0.18720761    -0.74100
O110        O  0.51456056  0.19586164  0.33105669    -0.74200
O111        O  0.52219770  0.24865677  0.33170852    -0.74100
O112        O  0.52725559  0.24710173  0.18930927    -0.74100
O113        O  0.48687760  0.25738595  0.25460422    -0.74100
O114        O  0.56296159  0.23672660  0.26600272    -0.74100
Ni115      Ni  0.51613342  0.19288580  0.25891178     1.25400
Ni116      Ni  0.52518604  0.24924471  0.26058301     1.25400
C117        C  0.57071018  0.20657001  0.26585216     0.88100
C118        C  0.47068668  0.23360316  0.25014352     0.88100
C119        C  0.52280227  0.22109674  0.16364717     0.88100
C120        C  0.51788428  0.22267757  0.35608232     0.88300
O121        O  0.04021939  0.03113123  0.48820511    -0.74000
O122        O  0.96748851  0.00482754  0.99734119    -0.74100
O123        O  0.00697823  0.01643720  0.06425968    -0.74100
O124        O  0.00355006  0.01493256  0.41876598    -0.74200
O125        O  0.02848257  0.45677831  0.42001850    -0.74100
O126        O  0.02977686  0.46295804  0.06171088    -0.74100
O127        O  0.98991827  0.44752315  0.49035055    -0.74100
O128        O  0.06518015  0.47631810  0.98938566    -0.74100
Ni129      Ni  0.00379119  0.01898479  0.99289671     1.25400
Ni130      Ni  0.02857301  0.46212099  0.99032692     1.25400
C131        C  0.05935192  0.00862613  0.98836454     0.88100
C132        C  0.96162633  0.97462657  0.99734438     0.88100
C133        C  0.01355372  0.99002597  0.08723746     0.88100
C134        C  0.01145501  0.98906354  0.39442761     0.88300
O135        O  0.05018520  0.01993891  0.24437619    -0.74000
O136        O  0.97333282  0.01078973  0.23809322    -0.74100
O137        O  0.01005266  0.01527048  0.31281723    -0.72500
O138        O  0.01241384  0.01594748  0.17006841    -0.74200
O139        O  0.02981660  0.46039731  0.16788757    -0.74100
O140        O  0.02887765  0.45737187  0.31162313    -0.74100
O141        O  0.99167824  0.45268920  0.23701334    -0.74100
O142        O  0.06789548  0.46347695  0.24075890    -0.74100
Ni143      Ni  0.01142582  0.01726414  0.24147834     1.25400
Ni144      Ni  0.02983585  0.45674326  0.23939595     1.25400
C145        C  0.06558710  0.99435443  0.24363831     0.88100
C146        C  0.96377682  0.98212850  0.23461781     0.88100
C147        C  0.01258148  0.98856619  0.33691493     0.88100
C148        C  0.01480629  0.98936296  0.14440092     0.88300
C149        C  0.32930994  0.25398041  0.47337173     0.30400
C150        C  0.32330630  0.28981709  0.05347935     0.30400
C151        C  0.31242641  0.23767087  0.50948277    -0.05800
C152        C  0.35513760  0.25984461  0.50202829    -0.06600
C153        C  0.31536042  0.28829928  0.46808997    -0.06500
C154        C  0.30867482  0.25584553  0.05045133    -0.05800
C155        C  0.35341945  0.27982333  0.04254276    -0.06600
C156        C  0.31407370  0.30622461  0.00937717    -0.06500
C157        C  0.29083655  0.23657824  0.07507445    -0.31800
N158        N  0.28890718  0.20694837  0.05344598     0.14700
C159        C  0.30160402  0.20735970  0.51320137    -0.31900
H160        H  0.30359147  0.18700764  0.48877290     0.16600
C161        C  0.37936395  0.28099222  0.06255251    -0.30800
N162        N  0.39673185  0.26187365  0.03684493     0.13400
C163        C  0.38113031  0.24689210  0.50148086    -0.30800
C164        C  0.29795733  0.33312184  0.00162229    -0.31100
N165        N  0.28899176  0.33156026  0.95723465     0.13900
H166        H  0.29193271  0.35171399  0.02708475     0.16500
C167        C  0.29804412  0.30474832  0.43706837    -0.31100
H168        H  0.29088409  0.29588827  0.40369430     0.16500
H169        H  0.38925469  0.22878708  0.47726040     0.16500
H170        H  0.27908869  0.24330919  0.10523374     0.16600
H171        H  0.38551991  0.29385628  0.09384771     0.16500
C172        C  0.32914635  0.25454045  0.21185886     0.30400
C173        C  0.33565699  0.22319958  0.29267812     0.30400
C174        C  0.30871827  0.22710934  0.22003441    -0.05800
C175        C  0.35661446  0.23686693  0.21752894    -0.06600
C176        C  0.32711532  0.27566602  0.25514903    -0.06500
C177        C  0.31228390  0.21115281  0.26269872    -0.05800
C178        C  0.35948092  0.21983939  0.25885273    -0.06600
C179        C  0.33027672  0.26049454  0.29666940    -0.06500
C180        C  0.30347341  0.17983386  0.25681236    -0.31800
N181        N  0.29383689  0.17611447  0.21315534     0.14700
C182        C  0.29787804  0.20395569  0.18980843    -0.31900
H183        H  0.29598388  0.20566595  0.15267258     0.16600
C184        C  0.38518614  0.20695822  0.26025881    -0.30800
N185        N  0.39854136  0.21756896  0.22272551     0.13400
C186        C  0.38144874  0.23562648  0.19586514    -0.30800
C187        C  0.32621813  0.28471681  0.33067397    -0.31100
N188        N  0.32050822  0.31353180  0.30949130     0.13900
H189        H  0.32729211  0.28163317  0.36754580     0.16500
C190        C  0.32125138  0.30804892  0.26318943    -0.31100
H191        H  0.31584861  0.32606412  0.23729817     0.16500
H192        H  0.38719964  0.24827020  0.16472496     0.16500
H193        H  0.30595273  0.16016703  0.28135772     0.16600
H194        H  0.39438157  0.19295918  0.28807807     0.16500
C195        C  0.21664916  0.50413848  0.04143779     0.30400
C196        C  0.20740308  0.53644969  0.45677586     0.30400
C197        C  0.22161253  0.48284001  0.99856001    -0.05800
C198        C  0.18776318  0.51796964  0.03373918    -0.06600
C199        C  0.22251923  0.03767432  0.03987618    -0.06500
C200        C  0.21517161  0.49958193  0.45497550    -0.05800
C201        C  0.18064863  0.53691285  0.48420942    -0.06600
C202        C  0.21937208  0.05210016  0.49757830    -0.06500
C203        C  0.22104314  0.47470088  0.42250123    -0.31800
N204        N  0.22698974  0.44653223  0.44555220     0.14700
C205        C  0.22857199  0.45054407  0.99150465    -0.31900
H206        H  0.23467410  0.43320897  0.01789817     0.16600
C207        C  0.15394045  0.54536330  0.47697764    -0.30800
N208        N  0.13947663  0.53455183  0.51320441     0.13400
C209        C  0.16303696  0.50775906  0.04870801    -0.30800
C210        C  0.22607768  0.08435890  0.50313070    -0.31100
N211        N  0.23381115  0.08976270  0.54768173     0.13900
H212        H  0.22417416  0.10305460  0.47695674     0.16500
C213        C  0.23121566  0.06208512  0.07051888    -0.31100
H214        H  0.23261756  0.06070509  0.10779536     0.16500
H215        H  0.15888711  0.49416275  0.07976121     0.16500
H216        H  0.21991760  0.47675933  0.38529075     0.16600
H217        H  0.14474596  0.55585374  0.44640664     0.16500
C218        C  0.21947284  0.50374766  0.28167145     0.30400
C219        C  0.22812759  0.46984922  0.20113927     0.30400
C220        C  0.23809050  0.47278225  0.28539626    -0.05800
C221        C  0.19384815  0.49056075  0.25854937    -0.06600
C222        C  0.22025847  0.02357473  0.24887532    -0.06500
C223        C  0.24142355  0.45554684  0.24380212    -0.05800
C224        C  0.19784318  0.47374356  0.21645320    -0.06600
C225        C  0.22638782  0.00693070  0.20795643    -0.06500
C226        C  0.25728778  0.42848382  0.25143889    -0.31800
N227        N  0.26457235  0.42870479  0.29680324     0.14700
C228        C  0.25375430  0.45590420  0.31794239    -0.31900
H229        H  0.25778700  0.46291467  0.35362358     0.16600
C230        C  0.17211795  0.46562663  0.20062757    -0.30800
N231        N  0.15348186  0.47644299  0.23218542     0.13400
C232        C  0.16658916  0.49062617  0.26835012    -0.30800
C233        C  0.24232071  0.02846302  0.18338932    -0.31100
N234        N  0.24275420  0.05761238  0.20643559     0.13900
H235        H  0.25404718  0.02373482  0.15256624     0.16500
C236        C  0.22945850  0.05475159  0.24680375    -0.31100
H237        H  0.22763153  0.07370597  0.27350868     0.16500
H238        H  0.15672428  0.49918244  0.29997037     0.16500
H239        H  0.26294287  0.40967815  0.22605165     0.16600
H240        H  0.16671395  0.45359387  0.16823825     0.16500
C241        C  0.17877463  0.05479841  0.38782916    -0.13000
C242        C  0.21085807  0.55174803  0.41041579     0.09200
C243        C  0.23705975  0.54802831  0.39203291    -0.13000
C244        C  0.23993271  0.53292613  0.34894413    -0.13000
C245        C  0.21671095  0.52528572  0.32351154     0.09200
C246        C  0.18084893  0.04190784  0.34286408    -0.13000
H247        H  0.15973690  0.06475138  0.40005418     0.13200
H248        H  0.25474626  0.54883995  0.41433347     0.13200
H249        H  0.25977422  0.52466911  0.33753105     0.13200
H250        H  0.16383699  0.04460584  0.31971376     0.13200
C251        C  0.20582811  0.45807091  0.09466404    -0.13000
C252        C  0.22333488  0.48296178  0.08149654     0.09200
C253        C  0.23851480  0.98087753  0.09839047    -0.13000
C254        C  0.24456813  0.96152232  0.13668089    -0.13000
C255        C  0.23503349  0.44916044  0.15842276     0.09200
C256        C  0.21335542  0.43850330  0.13182946    -0.13000
H257        H  0.18749220  0.45292486  0.07581879     0.13200
H258        H  0.25456227  0.99364225  0.08151511     0.13200
H259        H  0.26433791  0.96298472  0.15271110     0.13200
H260        H  0.19995397  0.42032112  0.14474101     0.13200
C261        C  0.25371842  0.14598273  0.19203540    -0.13000
C262        C  0.28182077  0.14685771  0.19609735     0.09200
C263        C  0.29704792  0.11753146  0.19451963    -0.13000
C264        C  0.28414532  0.08753127  0.19256223    -0.13000
C265        C  0.25593467  0.08673640  0.19332832     0.09200
C266        C  0.24083082  0.11607387  0.19107690    -0.13000
H267        H  0.24174807  0.16840378  0.19406308     0.13200
H268        H  0.31876152  0.11794770  0.19841003     0.13200
H269        H  0.29601116  0.06510072  0.19498077     0.13200
H270        H  0.21901792  0.11573698  0.19207112     0.13200
C271        C  0.26499793  0.37278018  0.32412343    -0.13000
C272        C  0.27869246  0.40187337  0.31775587     0.09200
C273        C  0.30689437  0.40162932  0.32052364    -0.13000
C274        C  0.32128854  0.37206447  0.32564380    -0.13000
C275        C  0.30762755  0.34250699  0.32797514     0.09200
C276        C  0.27935400  0.34336718  0.32957809    -0.13000
H277        H  0.24324130  0.37254256  0.32088767     0.13200
H278        H  0.31770811  0.42374881  0.31420728     0.13200
H279        H  0.34302722  0.37174020  0.32231534     0.13200
H280        H  0.26845196  0.32078399  0.32940249     0.13200
C281        C  0.28652486  0.15016993  0.07841615    -0.13000
C282        C  0.27327730  0.17958872  0.06661790     0.09200
C283        C  0.24466584  0.17897562  0.56194607    -0.13000
C284        C  0.23107531  0.14937335  0.55989651    -0.13000
C285        C  0.24539368  0.11956517  0.56431664     0.09200
C286        C  0.27270276  0.12075187  0.07727251    -0.13000
H287        H  0.30802152  0.14975940  0.08524309     0.13200
H288        H  0.23373431  0.20152129  0.55469987     0.13200
H289        H  0.20979579  0.14948911  0.55127876     0.13200
H290        H  0.28374988  0.09806028  0.08305240     0.13200
C291        C  0.28554005  0.38725088  0.92939856    -0.13000
C292        C  0.27323608  0.35735465  0.93665422     0.09200
C293        C  0.24456901  0.35811936  0.43847086    -0.13000
C294        C  0.22885225  0.38695615  0.43419833    -0.13000
C295        C  0.24111705  0.41737689  0.42973249     0.09200
C296        C  0.26999530  0.41578956  0.92415158    -0.13000
H297        H  0.30727057  0.38882005  0.93171937     0.13200
H298        H  0.23482097  0.33541441  0.44572480     0.13200
H299        H  0.20723824  0.38601400  0.43884665     0.13200
H300        H  0.28001304  0.43896662  0.92345659     0.13200
C301        C  0.35803532  0.23585522  0.40580799    -0.13000
C302        C  0.33341138  0.23471223  0.42928983     0.09200
C303        C  0.31194252  0.21826609  0.40840790    -0.13000
C304        C  0.31506986  0.20409745  0.36459057    -0.13000
C305        C  0.33898506  0.20886814  0.33971438     0.09200
C306        C  0.36166850  0.21990135  0.36386004    -0.13000
H307        H  0.37346407  0.25272075  0.41591762     0.13200
H308        H  0.29205880  0.21888645  0.42380459     0.13200
H309        H  0.29705690  0.19547791  0.34749083     0.13200
H310        H  0.38009887  0.22532653  0.34612368     0.13200
C311        C  0.29798522  0.28502377  0.15906359    -0.13000
C312        C  0.32459207  0.27662639  0.17240579     0.09200
C313        C  0.34489629  0.29826951  0.15975535    -0.13000
C314        C  0.33970825  0.31926699  0.12307486    -0.13000
C315        C  0.31746531  0.31178840  0.09549102     0.09200
C316        C  0.29421892  0.30450021  0.12015588    -0.13000
H317        H  0.28071953  0.27449602  0.17560957     0.13200
H318        H  0.36412681  0.29889421  0.17768918     0.13200
H319        H  0.35549244  0.33436408  0.10998485     0.13200
H320        H  0.27461232  0.30542298  0.10334818     0.13200
C321        C  0.10717299  0.49597598  0.24487809    -0.16000
C322        C  0.12467066  0.47282631  0.22831973    -0.31200
H323        H  0.10281741  0.02068201  0.26045059     0.13000
H324        H  0.11705627  0.45136479  0.21029432     0.13600
C325        C  0.09853356  0.51715333  0.98880796    -0.16000
C326        C  0.11761156  0.50256476  0.01474704    -0.31200
H327        H  0.11516153  0.47999275  0.50222569     0.13000
H328        H  0.10163700  0.98431667  0.03461374     0.13600
C329        C  0.44197298  0.23958199  0.23965383    -0.16000
C330        C  0.42720812  0.21588561  0.21984736    -0.31200
H331        H  0.43244805  0.26267838  0.25017844     0.13000
H332        H  0.43663230  0.19262503  0.20979004     0.13600
C333        C  0.42579963  0.25902941  0.04136427    -0.16000
C334        C  0.43959953  0.23334645  0.02199583    -0.31200
H335        H  0.43526449  0.27745150  0.55814541     0.13000
H336        H  0.42863796  0.21246079  0.00900510     0.13600
C337        C  0.92383555  0.94990550  0.21528258    -0.16000
C338        C  0.93458613  0.97851121  0.22791592    -0.31200
H339        H  0.94876042  0.42164088  0.22635001     0.13000
H340        H  0.92139120  0.99970423  0.23397267     0.13600
C341        C  0.85157672  0.96076770  0.39700180    -0.13000
C342        C  0.83695012  0.45490529  0.42312643     0.09200
C343        C  0.81735980  0.43449205  0.40358323    -0.13000
C344        C  0.82163633  0.42029185  0.35954083    -0.13000
C345        C  0.83487064  0.93032606  0.33145258     0.09200
C346        C  0.85637408  0.94465104  0.35550088    -0.13000
H347        H  0.86638401  0.97809904  0.40877070     0.13200
H348        H  0.79749214  0.43303909  0.41838131     0.13200
H349        H  0.80458605  0.40941630  0.34212690     0.13200
H350        H  0.87455686  0.95149696  0.33829084     0.13200
C351        C  0.80509698  0.50074439  0.15268223    -0.13000
C352        C  0.81721249  0.99401048  0.16150123     0.09200
C353        C  0.83580424  0.01824172  0.15069426    -0.13000
C354        C  0.82990327  0.03895950  0.11416892    -0.13000
C355        C  0.82298921  0.53276945  0.09289944     0.09200
C356        C  0.80037539  0.52246996  0.11675161    -0.13000
H357        H  0.78820556  0.48861910  0.16800678     0.13200
H358        H  0.85459955  0.02083292  0.16951275     0.13200
H359        H  0.84542459  0.05447679  0.10105818     0.13200
H360        H  0.78055150  0.52367952  0.10074052     0.13200
C361        C  0.93312483  0.96582888  0.00296502    -0.16000
C362        C  0.91626179  0.98426233  0.03005210    -0.31200
H363        H  0.93644407  0.44692702  0.97836992     0.13000
H364        H  0.92676647  0.99746290  0.55312965     0.13600
C365        C  0.79594532  0.11926302  0.30450284    -0.13000
C366        C  0.76776532  0.12189211  0.30624137     0.09200
C367        C  0.75293812  0.09421299  0.31657578    -0.13000
C368        C  0.76604173  0.06372462  0.32126293    -0.13000
C369        C  0.79407314  0.06050173  0.31515966     0.09200
C370        C  0.80898593  0.08879625  0.30892135    -0.13000
H371        H  0.80760564  0.14033489  0.29599111     0.13200
H372        H  0.73113027  0.09585076  0.31758458     0.13200
H373        H  0.75407284  0.04213446  0.32445748     0.13200
H374        H  0.83045658  0.08669712  0.30249268     0.13200
C375        C  0.74165633  0.34095705  0.18427691    -0.13000
C376        C  0.75352357  0.30957999  0.18445560     0.09200
C377        C  0.78171129  0.30609950  0.18264888    -0.13000
C378        C  0.79778330  0.33376859  0.18471385    -0.13000
C379        C  0.78575765  0.36508224  0.18800512     0.09200
C380        C  0.75765225  0.36849553  0.18618391    -0.13000
H381        H  0.71997665  0.34399192  0.18712613     0.13200
H382        H  0.79117046  0.28206700  0.18448567     0.13200
H383        H  0.81947688  0.33076744  0.18743842     0.13200
H384        H  0.74812332  0.39244182  0.18998981     0.13200
C385        C  0.61791409  0.21399216  0.29130193    -0.16000
C386        C  0.59943925  0.19693561  0.26767098    -0.31200
H387        H  0.61153250  0.23506899  0.31241676     0.13000
H388        H  0.60540797  0.17437541  0.24973742     0.13600
C389        C  0.74205843  0.13868241  0.92272084    -0.13000
C390        C  0.75807820  0.16656482  0.92625036     0.09200
C391        C  0.77512662  0.14833221  0.42871644    -0.13000
C392        C  0.78780000  0.11810372  0.41947358    -0.13000
C393        C  0.78156468  0.10325957  0.93447635     0.09200
C394        C  0.75372767  0.10722541  0.92665949    -0.13000
H395        H  0.72030015  0.14149566  0.92210854     0.13200
H396        H  0.78515344  0.17031915  0.41877135     0.13200
H397        H  0.80775047  0.11753293  0.40427988     0.13200
H398        H  0.74084316  0.08630742  0.92787448     0.13200
C399        C  0.77969688  0.34664019  0.03435311    -0.13000
C400        C  0.75626633  0.34818167  0.06202092     0.09200
C401        C  0.73489407  0.38614709  0.56747622    -0.13000
C402        C  0.74812199  0.41585513  0.57034643    -0.13000
C403        C  0.78392070  0.40581027  0.03993366     0.09200
C404        C  0.79326443  0.37519871  0.02300960    -0.13000
H405        H  0.78588144  0.32369778  0.01788169     0.13200
H406        H  0.71371495  0.38601750  0.55813462     0.13200
H407        H  0.73702945  0.43814571  0.56227154     0.13200
H408        H  0.81047167  0.37350001  0.99992236     0.13200
C409        C  0.70412395  0.29484805  0.38827585    -0.13000
C410        C  0.72476194  0.28510860  0.41810863     0.09200
C411        C  0.74931895  0.27473727  0.39810057    -0.13000
C412        C  0.74775224  0.25694389  0.35664837    -0.13000
C413        C  0.72220838  0.25352894  0.33628983     0.09200
C414        C  0.70211369  0.27743793  0.34694088    -0.13000
H415        H  0.68707067  0.30940572  0.40078802     0.13200
H416        H  0.76738601  0.27218618  0.41927359     0.13200
H417        H  0.76533683  0.24359942  0.34370497     0.13200
H418        H  0.68440740  0.28100158  0.32520825     0.13200
C419        C  0.68423666  0.22110981  0.10650701    -0.13000
C420        C  0.70800604  0.21796953  0.08086446     0.09200
C421        C  0.72866748  0.19665331  0.09673228    -0.13000
C422        C  0.72577897  0.18040995  0.13859784    -0.13000
C423        C  0.70316230  0.18746062  0.16659444     0.09200
C424        C  0.68070398  0.20316289  0.14592222    -0.13000
H425        H  0.66867836  0.23892907  0.09749507     0.13200
H426        H  0.74842000  0.19589813  0.08108347     0.13200
H427        H  0.74348507  0.16831335  0.15301500     0.13200
H428        H  0.66287426  0.20993007  0.16527159     0.13200
C429        C  0.60041831  0.21377126  0.99813140    -0.16000
C430        C  0.61441196  0.23533491  0.97386845    -0.31200
H431        H  0.61044116  0.19276640  0.01366734     0.13000
H432        H  0.60455689  0.26242813  0.45276270     0.13600
C433        C  0.70917050  0.27552652  0.96220980     0.30400
C434        C  0.70726222  0.24369119  0.54594551     0.30400
C435        C  0.71129375  0.29402332  0.00864543    -0.05800
C436        C  0.68368436  0.25668067  0.96847624    -0.06600
C437        C  0.73152820  0.24761747  0.96243873    -0.06500
C438        C  0.71876799  0.27858749  0.54539553    -0.05800
C439        C  0.68299641  0.24494051  0.51299770    -0.06600
C440        C  0.72767241  0.22344053  0.51750187    -0.06500
C441        C  0.72945791  0.30114839  0.57673165    -0.31800
N442        N  0.73794241  0.32725890  0.55288992     0.14700
C443        C  0.72129669  0.32440194  0.01658938    -0.31900
H444        H  0.72222412  0.34378399  0.99142998     0.16600
C445        C  0.65720251  0.23407907  0.51487094    -0.30800
N446        N  0.64334939  0.23551163  0.97491057     0.13400
C447        C  0.65834794  0.25540615  0.94881333    -0.30800
C448        C  0.73260096  0.19002855  0.51487641    -0.31100
N449        N  0.74133949  0.18197172  0.47139907     0.13900
H450        H  0.72877130  0.17269203  0.54201204     0.16500
C451        C  0.73977601  0.22537765  0.92717698    -0.31100
H452        H  0.73698549  0.22874079  0.89044159     0.16500
H453        H  0.65067351  0.26937558  0.91972299     0.16500
H454        H  0.73229988  0.29827821  0.61346029     0.16600
H455        H  0.64833506  0.22142796  0.54364335     0.16500
C456        C  0.70973119  0.28590879  0.72380127     0.30400
C457        C  0.71309171  0.31798225  0.80671878     0.30400
C458        C  0.71445635  0.32319161  0.72123610    -0.05800
C459        C  0.68492742  0.28329362  0.75491849    -0.06600
C460        C  0.73184875  0.27310222  0.75588032    -0.06500
C461        C  0.71590194  0.33895662  0.76412939    -0.05800
C462        C  0.68563244  0.30041780  0.79685867    -0.06600
C463        C  0.73500037  0.28976702  0.79805832    -0.06500
C464        C  0.72288776  0.37071999  0.75744359    -0.31800
N465        N  0.72598863  0.37533493  0.71119850     0.14700
C466        C  0.72099300  0.34654785  0.68857335    -0.31900
H467        H  0.72314076  0.34292681  0.65162910     0.16600
C468        C  0.65972359  0.29724046  0.81571868    -0.30800
N469        N  0.64469646  0.27780812  0.78722828     0.13400
C470        C  0.66030312  0.26856450  0.75065359    -0.30800
C471        C  0.75105139  0.26856664  0.82539228    -0.31100
N472        N  0.75495514  0.23971583  0.80231778     0.13900
H473        H  0.75857931  0.27241999  0.86006806     0.16500
C474        C  0.74192345  0.24180534  0.76154825    -0.31100
H475        H  0.73818102  0.22066962  0.73954369     0.16500
H476        H  0.65356784  0.25346742  0.72178116     0.16500
H477        H  0.72767108  0.38846067  0.78452833     0.16600
H478        H  0.65166123  0.30867263  0.84699412     0.16500
C479        C  0.83512251  0.49425993  0.95781928     0.30400
C480        C  0.83156104  0.51640169  0.54015661     0.30400
C481        C  0.81394524  0.47583550  0.98493219    -0.05800
C482        C  0.85976244  0.49078720  0.98931567    -0.06600
C483        C  0.81336297  0.02407072  0.95774751    -0.06500
C484        C  0.80875204  0.49040685  0.53823380    -0.05800
C485        C  0.85703444  0.49530854  0.53757643    -0.06600
C486        C  0.81965836  0.03348792  0.49486162    -0.06500
C487        C  0.79723863  0.47188384  0.57309055    -0.31800
N488        N  0.79022094  0.44247896  0.55502163     0.14700
C489        C  0.80634105  0.44338991  0.98382851    -0.31900
H490        H  0.80917948  0.42623331  0.95500991     0.16600
C491        C  0.87271864  0.99539484  0.55620016    -0.30800
N492        N  0.88929996  0.97594200  0.52983497     0.13400
C493        C  0.87412274  0.97445195  0.98603231    -0.30800
C494        C  0.80861994  0.06377282  0.48689286    -0.31100
N495        N  0.79534226  0.06295993  0.44634943     0.13900
H496        H  0.80639269  0.08361031  0.51218815     0.16500
C497        C  0.80205327  0.04673372  0.92728891    -0.31100
H498        H  0.79939165  0.04360804  0.89033881     0.16500
H499        H  0.88329997  0.96220028  0.95613939     0.16500
H500        H  0.79707253  0.47763132  0.60970402     0.16600
H501        H  0.87937825  0.01043563  0.58520543     0.16500
C502        C  0.81688171  0.06009184  0.69584705     0.30400
C503        C  0.82228750  0.02823102  0.77738589     0.30400
C504        C  0.80550274  0.53786470  0.70411428    -0.05800
C505        C  0.85464185  0.54666906  0.70427175    -0.06600
C506        C  0.81383981  0.08110388  0.73934430    -0.06500
C507        C  0.80920841  0.52250573  0.74633772    -0.05800
C508        C  0.85595496  0.53116527  0.74681496    -0.06600
C509        C  0.81639886  0.06554912  0.78157519    -0.06500
C510        C  0.79782366  0.49220734  0.74258513    -0.31800
N511        N  0.78348427  0.49018541  0.70293436     0.14700
C512        C  0.78754322  0.51794806  0.67902003    -0.31900
H513        H  0.77861387  0.52205760  0.64540955     0.16600
C514        C  0.87209718  0.01071286  0.74868568    -0.30800
N515        N  0.88692141  0.01994671  0.71205790     0.13400
C516        C  0.87084192  0.03914647  0.68472327    -0.30800
C517        C  0.81089257  0.08952121  0.81554121    -0.31100
N518        N  0.80520868  0.11829599  0.79405226     0.13900
H519        H  0.81047984  0.08654390  0.85267951     0.16500
C520        C  0.80700569  0.11321541  0.74749396    -0.31100
H521        H  0.80202341  0.13123115  0.72138868     0.16500
H522        H  0.87829977  0.05099301  0.65424872     0.16500
H523        H  0.80090634  0.47182173  0.76566049     0.16600
H524        H  0.87983087  0.99613070  0.77707579     0.16500
O525        O  0.55804487  0.19658559  0.50508004    -0.74000
O526        O  0.48019577  0.20259501  0.01086268    -0.74100
O527        O  0.51849246  0.19925337  0.93695861    -0.74100
O528        O  0.52271026  0.20074087  0.58192903    -0.74200
O529        O  0.52432630  0.25444280  0.58118523    -0.74100
O530        O  0.52013600  0.25296459  0.94042882    -0.74100
O531        O  0.48226575  0.25654840  0.51590505    -0.74100
O532        O  0.56044128  0.24639001  0.00671903    -0.74100
Ni533      Ni  0.51948800  0.19759642  0.51047241     1.25400
Ni534      Ni  0.52098898  0.25511656  0.50936925     1.25400
C535        C  0.57124975  0.22275699  0.50025038     0.88100
C536        C  0.46879464  0.23036854  0.51841213     0.88100
C537        C  0.51987160  0.22653390  0.91400504     0.88100
C538        C  0.52443162  0.22795193  0.60627347     0.88300
O539        O  0.56744011  0.21054922  0.76314264    -0.74000
O540        O  0.49223369  0.19234280  0.75613776    -0.74100
O541        O  0.53040239  0.20201660  0.68797214    -0.74100
O542        O  0.52756202  0.20121646  0.83126959    -0.74200
O543        O  0.51755501  0.25393909  0.83259331    -0.74100
O544        O  0.52242013  0.25518168  0.68918776    -0.74100
O545        O  0.48268758  0.24571802  0.75466221    -0.74100
O546        O  0.55821576  0.26391532  0.76697474    -0.74100
Ni547      Ni  0.52989079  0.19985887  0.75964495     1.25400
Ni548      Ni  0.51997301  0.25651314  0.76097039     1.25400
C549        C  0.57535328  0.23999530  0.76722267     0.88100
C550        C  0.47524672  0.21600614  0.75247715     0.88100
C551        C  0.52599516  0.22850325  0.66382940     0.88100
C552        C  0.52162628  0.22730435  0.85659073     0.88300
O553        O  0.04057784  0.03038059  0.98912988    -0.74000
O554        O  0.96769405  0.00307870  0.49365299    -0.74100
O555        O  0.00552361  0.01851878  0.56228714    -0.74100
O556        O  0.00223976  0.01772286  0.92093859    -0.74200
O557        O  0.02654636  0.46447054  0.91903145    -0.74100
O558        O  0.02627525  0.45790722  0.56393066    -0.74100
O559        O  0.99100637  0.45173820  0.99204216    -0.74100
O560        O  0.06488820  0.46558132  0.49470018    -0.74100
Ni561      Ni  0.00367030  0.01857933  0.49055769     1.25400
Ni562      Ni  0.02770526  0.45517061  0.49204264     1.25400
C563        C  0.05940342  0.00996287  0.48999851     0.88100
C564        C  0.96269729  0.97261719  0.49467394     0.88100
C565        C  0.01208284  0.99296862  0.58715409     0.88100
C566        C  0.00908240  0.99231402  0.89474906     0.88300
O567        O  0.04900291  0.02181193  0.74540013    -0.74000
O568        O  0.97175729  0.02022567  0.73693793    -0.74100
O569        O  0.00826564  0.02011956  0.81333578    -0.72500
O570        O  0.01165248  0.02059644  0.66966735    -0.74200
O571        O  0.02064698  0.45975299  0.67077773    -0.74100
O572        O  0.01917801  0.46289059  0.81368191    -0.74100
O573        O  0.98053192  0.46361101  0.74004685    -0.74100
O574        O  0.05863869  0.45972374  0.74425650    -0.74100
Ni575      Ni  0.01019145  0.02246961  0.74146619     1.25400
Ni576      Ni  0.01964093  0.45966477  0.74222793     1.25400
C577        C  0.06310649  0.99520378  0.74496594     0.88100
C578        C  0.95990100  0.99288452  0.73496452     0.88100
C579        C  0.00954735  0.99305200  0.83716840     0.88100
C580        C  0.01240611  0.99358186  0.64446298     0.88300
C581        C  0.33082215  0.25412382  0.97404265     0.30400
C582        C  0.32224467  0.28932240  0.55315157     0.30400
C583        C  0.31430102  0.23758364  0.01038254    -0.05800
C584        C  0.35645041  0.26086336  0.00248139    -0.06600
C585        C  0.31638506  0.28797246  0.96843472    -0.06500
C586        C  0.30715670  0.25570139  0.54983204    -0.05800
C587        C  0.35225612  0.27872569  0.54223125    -0.06600
C588        C  0.31334554  0.30623874  0.50930058    -0.06500
C589        C  0.28982350  0.23614657  0.57514742    -0.31800
N590        N  0.28759836  0.20672429  0.55316566     0.14700
C591        C  0.30342159  0.20731374  0.01401621    -0.31900
H592        H  0.30544748  0.18693765  0.98964094     0.16600
C593        C  0.37818396  0.27950824  0.56231424    -0.30800
N594        N  0.39549503  0.26019497  0.53671239     0.13400
C595        C  0.38243673  0.24834551  0.00177014    -0.30800
C596        C  0.29788768  0.33378257  0.50211958    -0.31100
N597        N  0.28888340  0.33309484  0.45776393     0.13900
H598        H  0.29216728  0.35216959  0.52808492     0.16500
C599        C  0.29868463  0.30335724  0.93717351    -0.31100
H600        H  0.29154725  0.29388735  0.90412918     0.16500
H601        H  0.39055013  0.23035642  0.97738169     0.16500
H602        H  0.27894668  0.24220922  0.60648021     0.16600
H603        H  0.38436956  0.29248306  0.59350040     0.16500
C604        C  0.32977276  0.25435057  0.71111643     0.30400
C605        C  0.33776588  0.22381826  0.79220667     0.30400
C606        C  0.31068371  0.22550378  0.71938402    -0.05800
C607        C  0.35801961  0.23857235  0.71703339    -0.06600
C608        C  0.32652118  0.27541304  0.75427233    -0.06500
C609        C  0.31512688  0.20989691  0.76212137    -0.05800
C610        C  0.36170677  0.22202374  0.75847473    -0.06600
C611        C  0.33053822  0.26067974  0.79585142    -0.06500
C612        C  0.30773563  0.17798380  0.75650922    -0.31800
N613        N  0.29790347  0.17348742  0.71304929     0.14700
C614        C  0.30049067  0.20164474  0.68951931    -0.31900
H615        H  0.29761373  0.20348915  0.65247905     0.16600
C616        C  0.38809817  0.21159818  0.76046454    -0.30800
N617        N  0.40119528  0.22345843  0.72320174     0.13400
C618        C  0.38294582  0.23940968  0.69581157    -0.30800
C619        C  0.32553185  0.28473358  0.82974396    -0.31100
N620        N  0.31807742  0.31294517  0.80837280     0.13900
H621        H  0.32748025  0.28194196  0.86656831     0.16500
C622        C  0.31889338  0.30732385  0.76212354    -0.31100
H623        H  0.31261436  0.32489511  0.73615286     0.16500
H624        H  0.38799930  0.25259774  0.66478292     0.16500
H625        H  0.31081617  0.15871863  0.78152924     0.16600
H626        H  0.39764397  0.19893510  0.78914466     0.16500
C627        C  0.21009145  0.50662303  0.53956469     0.30400
C628        C  0.20910757  0.53328439  0.95921885     0.30400
C629        C  0.21679115  0.48531754  0.49743608    -0.05800
C630        C  0.18206556  0.52091612  0.52708507    -0.06600
C631        C  0.22250266  0.03723768  0.54054547    -0.06500
C632        C  0.21732994  0.49679261  0.95645829    -0.05800
C633        C  0.18367764  0.53301155  0.99010789    -0.06600
C634        C  0.21914170  0.05269833  0.99720243    -0.06500
C635        C  0.22079043  0.47182264  0.92331417    -0.31800
N636        N  0.22824765  0.44385698  0.94541644     0.14700
C637        C  0.22407303  0.45300247  0.49140308    -0.31900
H638        H  0.22825470  0.43553388  0.51861700     0.16600
C639        C  0.15691492  0.52844767  0.97917530    -0.30800
N640        N  0.14455477  0.51433132  0.01534892     0.13400
C641        C  0.15628294  0.51970948  0.54417906    -0.30800
C642        C  0.22621941  0.08478304  0.00246579    -0.31100
N643        N  0.23439946  0.09010072  0.04678398     0.13900
H644        H  0.22424549  0.10346523  0.97628826     0.16500
C645        C  0.23073289  0.06175478  0.57132679    -0.31100
H646        H  0.23195591  0.06040617  0.60856781     0.16500
H647        H  0.14979374  0.50721775  0.57498868     0.16500
H648        H  0.21705252  0.47354089  0.88653186     0.16600
H649        H  0.14763687  0.53085997  0.94527644     0.16500
C650        C  0.21288741  0.49999056  0.78286015     0.30400
C651        C  0.21975425  0.46771428  0.70044209     0.30400
C652        C  0.23276165  0.47005576  0.78346585    -0.05800
C653        C  0.18705634  0.48544517  0.76246945    -0.06600
C654        C  0.21749333  0.02472772  0.74828000    -0.06500
C655        C  0.23534629  0.45351732  0.74111763    -0.05800
C656        C  0.19018374  0.46933768  0.71960516    -0.06600
C657        C  0.22328301  0.00782758  0.70740745    -0.06500
C658        C  0.25188861  0.42669333  0.74713434    -0.31800
N659        N  0.26020389  0.42658989  0.79211284     0.14700
C660        C  0.24935736  0.45321441  0.81452619    -0.31900
H661        H  0.25366047  0.45957327  0.85033048     0.16600
C662        C  0.16452608  0.45901371  0.70685964    -0.30800
N663        N  0.14676439  0.46772607  0.74081309     0.13400
C664        C  0.16036419  0.48310058  0.77551701    -0.30800
C665        C  0.24051277  0.02842312  0.68368289    -0.31100
N666        N  0.24166050  0.05761507  0.70648701     0.13900
H667        H  0.25316900  0.02271248  0.65426557     0.16500
C668        C  0.22778951  0.05548661  0.74638618    -0.31100
H669        H  0.22708345  0.07418241  0.77357639     0.16500
H670        H  0.15125341  0.49123533  0.80801486     0.16500
H671        H  0.25696124  0.40806620  0.72114327     0.16600
H672        H  0.15823925  0.44730396  0.67482503     0.16500
C673        C  0.17839314  0.05620331  0.88810411    -0.13000
C674        C  0.20980538  0.54873894  0.91246056     0.09200
C675        C  0.23488285  0.54528951  0.89003577    -0.13000
C676        C  0.23567746  0.52930949  0.84739446    -0.13000
C677        C  0.21138778  0.52066012  0.82580159     0.09200
C678        C  0.18022041  0.04300768  0.84331069    -0.13000
H679        H  0.15942733  0.06619675  0.90063243     0.13200
H680        H  0.25366189  0.54702474  0.90930249     0.13200
H681        H  0.25501907  0.52167376  0.83298599     0.13200
H682        H  0.16304157  0.04527813  0.82041199     0.13200
C683        C  0.19571994  0.46273067  0.59339670    -0.13000
C684        C  0.21488396  0.48565238  0.58046627     0.09200
C685        C  0.23712854  0.98038669  0.59993109    -0.13000
C686        C  0.24259507  0.96089210  0.63828561    -0.13000
C687        C  0.22508778  0.44856597  0.65564494     0.09200
C688        C  0.20266762  0.44099264  0.62842600    -0.13000
H689        H  0.17672582  0.46038024  0.57514747     0.13200
H690        H  0.25352554  0.99258599  0.58317425     0.13200
H691        H  0.26231921  0.96179386  0.65459713     0.13200
H692        H  0.18941797  0.42174562  0.63810406     0.13200
C693        C  0.25792639  0.14437138  0.68714256    -0.13000
C694        C  0.28559277  0.14395074  0.69726959     0.09200
C695        C  0.29931437  0.11379513  0.70233870    -0.13000
C696        C  0.28517509  0.08461443  0.70058083    -0.13000
C697        C  0.25710558  0.08539285  0.69469541     0.09200
C698        C  0.24372331  0.11530471  0.68643045    -0.13000
H699        H  0.24698131  0.16740941  0.68393651     0.13200
H700        H  0.32060393  0.11312009  0.71092082     0.13200
H701        H  0.29568087  0.06178451  0.70783155     0.13200
H702        H  0.22200463  0.11624192  0.68237309     0.13200
C703        C  0.26124276  0.37032553  0.81874032    -0.13000
C704        C  0.27454729  0.39971184  0.81264668     0.09200
C705        C  0.30260013  0.40042953  0.81811506    -0.13000
C706        C  0.31740705  0.37136033  0.82515831    -0.13000
C707        C  0.30430867  0.34138135  0.82666764     0.09200
C708        C  0.27600307  0.34142128  0.82615443    -0.13000
H709        H  0.23959374  0.36944106  0.81405140     0.13200
H710        H  0.31311569  0.42289224  0.81273986     0.13200
H711        H  0.33920632  0.37169146  0.82377107     0.13200
H712        H  0.26556943  0.31850404  0.82564164     0.13200
C713        C  0.28669017  0.14937434  0.57547702    -0.13000
C714        C  0.27276708  0.17897675  0.56732038     0.09200
C715        C  0.24559112  0.17950197  0.05674394    -0.13000
C716        C  0.23188938  0.15000050  0.05466626    -0.13000
C717        C  0.24560404  0.12024934  0.06318857     0.09200
C718        C  0.27303915  0.11990279  0.57454880    -0.13000
H719        H  0.30843841  0.14896449  0.57905009     0.13200
H720        H  0.23524939  0.20181883  0.04641813     0.13200
H721        H  0.21109722  0.15003127  0.04296141     0.13200
H722        H  0.28443383  0.09714535  0.57735970     0.13200
C723        C  0.28497408  0.38939892  0.43159215    -0.13000
C724        C  0.27282018  0.35932844  0.43864454     0.09200
C725        C  0.24501782  0.35598067  0.93507112    -0.13000
C726        C  0.22937766  0.38480047  0.93049276    -0.13000
C727        C  0.24181051  0.41515908  0.92716032     0.09200
C728        C  0.26932470  0.41802770  0.42686826    -0.13000
H729        H  0.30672098  0.39097284  0.43319483     0.13200
H730        H  0.23520546  0.33326521  0.94199999     0.13200
H731        H  0.20773596  0.38391363  0.93477622     0.13200
H732        H  0.27932148  0.44120219  0.42587276     0.13200
C733        C  0.35977747  0.23799589  0.90601498    -0.13000
C734        C  0.33541466  0.23512650  0.92983923     0.09200
C735        C  0.31446693  0.21786599  0.90873715    -0.13000
C736        C  0.31792055  0.20429758  0.86456162    -0.13000
C737        C  0.34161389  0.21027424  0.83962988     0.09200
C738        C  0.36380252  0.22280970  0.86365366    -0.13000
H739        H  0.37462561  0.25555076  0.91644271     0.13200
H740        H  0.29462513  0.21746021  0.92417561     0.13200
H741        H  0.30019556  0.19492879  0.84735790     0.13200
H742        H  0.38179557  0.22979312  0.84587899     0.13200
C743        C  0.29778410  0.28411664  0.65903968    -0.13000
C744        C  0.32458507  0.27631803  0.67177062     0.09200
C745        C  0.34430678  0.29879077  0.65918333    -0.13000
C746        C  0.33877717  0.31927805  0.62210529    -0.13000
C747        C  0.31644889  0.31127675  0.59513780     0.09200
C748        C  0.29346933  0.30368409  0.62037408    -0.13000
H749        H  0.28084152  0.27314627  0.67598211     0.13200
H750        H  0.36341939  0.30037631  0.67727820     0.13200
H751        H  0.35441855  0.33432829  0.60838412     0.13200
H752        H  0.27372738  0.30432709  0.60403525     0.13200
C753        C  0.10088777  0.48739539  0.75253113    -0.16000
C754        C  0.11799819  0.46344406  0.73806745    -0.31200
H755        H  0.10094366  0.01992725  0.76337385     0.13000
H756        H  0.11024940  0.44211503  0.71990573     0.13600
C757        C  0.10128603  0.50093688  0.50323018    -0.16000
C758        C  0.11099486  0.53074340  0.51080799    -0.31200
H759        H  0.10292634  0.53927203  0.97022574     0.13000
H760        H  0.10159174  0.98607933  0.53667744     0.13600
C761        C  0.44674266  0.20848900  0.74647818    -0.16000
C762        C  0.42987609  0.22723562  0.72107554    -0.31200
H763        H  0.43956771  0.18676531  0.76309517     0.13000
H764        H  0.43774471  0.24727863  0.70126506     0.13600
C765        C  0.42463283  0.25752538  0.54137638    -0.16000
C766        C  0.43891242  0.23190175  0.52266044    -0.31200
H767        H  0.43665310  0.27877660  0.05812746     0.13000
H768        H  0.42826603  0.21081133  0.50949313     0.13600
C769        C  0.91594333  0.01646073  0.70869506    -0.16000
C770        C  0.93009397  0.99257702  0.73072859    -0.31200
H771        H  0.93645629  0.53477336  0.69017406     0.13000
H772        H  0.91962666  0.97266515  0.74657576     0.13600
C773        C  0.85222485  0.99534895  0.88751888    -0.13000
C774        C  0.83964284  0.48683647  0.90774354     0.09200
C775        C  0.81609119  0.48309726  0.88150389    -0.13000
C776        C  0.81227492  0.50151293  0.84216541    -0.13000
C777        C  0.82491101  0.01037111  0.82203322     0.09200
C778        C  0.84873070  0.01275807  0.84740963    -0.13000
H779        H  0.86976127  0.00165500  0.90775848     0.13200
H780        H  0.79860115  0.47177664  0.89606735     0.13200
H781        H  0.79200982  0.50341630  0.82835588     0.13200
H782        H  0.86423462  0.02943510  0.83748725     0.13200
C783        C  0.80041132  0.57797671  0.62390705    -0.13000
C784        C  0.81321418  0.08073601  0.65266302     0.09200
C785        C  0.83629022  0.08415906  0.62576609    -0.13000
C786        C  0.83998191  0.06135217  0.58962758    -0.13000
C787        C  0.82887145  0.54257445  0.57647141     0.09200
C788        C  0.80290646  0.55478725  0.58804160    -0.13000
H789        H  0.78070924  0.58307921  0.63884538     0.13200
H790        H  0.85328938  0.09756398  0.63917259     0.13200
H791        H  0.85908914  0.05965416  0.57168812     0.13200
H792        H  0.78493437  0.54509492  0.57186552     0.13200
C793        C  0.93461273  0.96256762  0.50017566    -0.16000
C794        C  0.91819932  0.97883548  0.53033966    -0.31200
H795        H  0.93658205  0.44257214  0.47918379     0.13000
H796        H  0.92459523  0.00309952  0.05268639     0.13600
C797        C  0.79547257  0.20668517  0.82189551    -0.13000
C798        C  0.76732637  0.20964931  0.81776774     0.09200
C799        C  0.75210831  0.18113913  0.81602489    -0.13000
C800        C  0.76481887  0.15037894  0.81396359    -0.13000
C801        C  0.79300002  0.14746317  0.81365301     0.09200
C802        C  0.80826075  0.17572455  0.81940703    -0.13000
H803        H  0.80758126  0.22831526  0.82206077     0.13200
H804        H  0.73039262  0.18291523  0.81219194     0.13200
H805        H  0.75276673  0.12896400  0.80833987     0.13200
H806        H  0.83004816  0.17395556  0.81781951     0.13200
C807        C  0.72633609  0.43313467  0.68812181    -0.13000
C808        C  0.73991792  0.40288812  0.69347715     0.09200
C809        C  0.76816206  0.40191413  0.69318042    -0.13000
C810        C  0.78258932  0.43075913  0.69122286    -0.13000
C811        C  0.76911369  0.46129852  0.68937278     0.09200
C812        C  0.74086053  0.46216395  0.68559987    -0.13000
H813        H  0.70453256  0.43447168  0.68952599     0.13200
H814        H  0.77897738  0.37898685  0.69838369     0.13200
H815        H  0.80433751  0.42951613  0.69469723     0.13200
H816        H  0.73002581  0.48540533  0.68523144     0.13200
C817        C  0.61602253  0.27210667  0.79070639    -0.16000
C818        C  0.60481135  0.24565825  0.77022876    -0.31200
H819        H  0.60328773  0.28988997  0.80925536     0.13000
H820        H  0.61793861  0.22669293  0.75528237     0.13600
C821        C  0.73925250  0.12140653  0.46848955    -0.13000
C822        C  0.75132814  0.15044300  0.45503860     0.09200
C823        C  0.78615911  0.16207563  0.92946858    -0.13000
C824        C  0.79776783  0.13079056  0.93379084    -0.13000
C825        C  0.77680671  0.08913556  0.43535156     0.09200
C826        C  0.75177417  0.09099191  0.45830276    -0.13000
H827        H  0.72092097  0.12236601  0.48887547     0.13200
H828        H  0.79880272  0.18308004  0.93404211     0.13200
H829        H  0.81921645  0.12819050  0.94040560     0.13200
H830        H  0.74352933  0.06918340  0.47288657     0.13200
C831        C  0.77697903  0.35714603  0.58262930    -0.13000
C832        C  0.74949433  0.35658751  0.57114965     0.09200
C833        C  0.74768133  0.37866487  0.08004020    -0.13000
C834        C  0.76157450  0.40695037  0.07003128    -0.13000
C835        C  0.77620496  0.41636718  0.57595862     0.09200
C836        C  0.79031601  0.38691852  0.58469798    -0.13000
H837        H  0.78856283  0.33450085  0.58496272     0.13200
H838        H  0.72882596  0.38086412  0.09886652     0.13200
H839        H  0.75364876  0.43014039  0.08322864     0.13200
H840        H  0.81208036  0.38674683  0.58783102     0.13200
C841        C  0.68894569  0.32039932  0.91319529    -0.13000
C842        C  0.71110444  0.29998880  0.92488464     0.09200
C843        C  0.73682855  0.31143223  0.91357246    -0.13000
C844        C  0.73901123  0.33295842  0.87688161    -0.13000
C845        C  0.71556112  0.33862272  0.85091265     0.09200
C846        C  0.69207844  0.34245073  0.87726677    -0.13000
H847        H  0.66972186  0.31898451  0.93051111     0.13200
H848        H  0.75494642  0.30197301  0.93036438     0.13200
H849        H  0.75867461  0.33670931  0.86188146     0.13200
H850        H  0.67465829  0.35555813  0.86352216     0.13200
C851        C  0.67939522  0.25248462  0.61424831    -0.13000
C852        C  0.70116517  0.23446367  0.59439664     0.09200
C853        C  0.72397379  0.22788306  0.62166044    -0.13000
C854        C  0.72800739  0.24653075  0.66147717    -0.13000
C855        C  0.70742371  0.26776747  0.67857604     0.09200
C856        C  0.68348243  0.27114940  0.65360382    -0.13000
H857        H  0.66143815  0.25902370  0.59499784     0.13200
H858        H  0.74121464  0.21457941  0.60724067     0.13200
H859        H  0.74823834  0.24661397  0.67553243     0.13200
H860        H  0.66803508  0.28893117  0.66396787     0.13200
C861        C  0.60066295  0.22025792  0.49356588    -0.16000
C862        C  0.61494384  0.24287942  0.47128316    -0.31200
H863        H  0.61105593  0.19926905  0.50853030     0.13000
H864        H  0.60368252  0.25467558  0.95537492     0.13600
C865        C  0.71627882  0.75881496  0.46423672     0.30400
C866        C  0.70588435  0.73164102  0.03622197     0.30400
C867        C  0.72562544  0.77975261  0.50440098    -0.05800
C868        C  0.68561552  0.75429415  0.47318251    -0.06600
C869        C  0.72799005  0.72421445  0.47618238    -0.06500
C870        C  0.70899958  0.76863019  0.04750150    -0.05800
C871        C  0.68085261  0.72940049  0.00321324    -0.06600
C872        C  0.72872932  0.72439309  0.00290943    -0.06500
C873        C  0.72769126  0.78672428  0.07394667    -0.31800
N874        N  0.72870608  0.81771837  0.05784886     0.14700
C875        C  0.73954169  0.80819637  0.50867270    -0.31900
H876        H  0.74620198  0.82330496  0.48050073     0.16600
C877        C  0.65505765  0.71787004  0.00704068    -0.30800
N878        N  0.64151927  0.74300367  0.47887518     0.13400
C879        C  0.66054716  0.75542220  0.45028882    -0.30800
C880        C  0.74018927  0.69483831  0.99051061    -0.31100
N881        N  0.75028998  0.69633136  0.94752121     0.13900
H882        H  0.73936672  0.67222166  0.00922764     0.16500
C883        C  0.73818257  0.69811327  0.45064287    -0.31100
H884        H  0.74309812  0.69760532  0.41428503     0.16500
H885        H  0.65631332  0.76388645  0.41543740     0.16500
H886        H  0.74310827  0.77669968  0.09640000     0.16600
H887        H  0.64765421  0.70312908  0.03487169     0.16500
C888        C  0.70536442  0.69183943  0.21444730     0.30400
C889        C  0.71591131  0.72090487  0.29730713     0.30400
C890        C  0.71663927  0.72687584  0.21314520    -0.05800
C891        C  0.68136438  0.69470751  0.24839408    -0.06600
C892        C  0.72649323  0.67360409  0.24459477    -0.06500
C893        C  0.72145090  0.74104859  0.25549136    -0.05800
C894        C  0.68662463  0.71025200  0.29048392    -0.06600
C895        C  0.73227675  0.68886581  0.28749700    -0.06500
C896        C  0.73296860  0.77073262  0.24944700    -0.31800
N897        N  0.73583222  0.77531730  0.20347977     0.14700
C898        C  0.72630200  0.74851162  0.18072556    -0.31900
H899        H  0.72704767  0.74430347  0.14405582     0.16600
C900        C  0.66231995  0.71431779  0.31351851    -0.30800
N901        N  0.64258665  0.70156701  0.28641663     0.13400
C902        C  0.65425246  0.68802907  0.24768604    -0.30800
C903        C  0.74787278  0.66703720  0.31280683    -0.31100
N904        N  0.75129749  0.63914363  0.28701837     0.13900
H905        H  0.75515756  0.67029008  0.34809144     0.16500
C906        C  0.73795621  0.64262723  0.24572345    -0.31100
H907        H  0.73611486  0.62366042  0.21919744     0.16500
H908        H  0.64343445  0.67627085  0.21946858     0.16500
H909        H  0.73972813  0.78745261  0.27654101     0.16600
H910        H  0.65881512  0.72746754  0.34606133     0.16500
C911        C  0.82308498  0.97757832  0.46400878     0.30400
C912        C  0.81449109  0.01366500  0.04099536     0.30400
C913        C  0.80050913  0.96918915  0.49683970    -0.05800
C914        C  0.84841289  0.97582377  0.49679657    -0.06600
C915        C  0.82799458  0.51239639  0.45472629    -0.06500
C916        C  0.79757695  0.98306413  0.02674501    -0.05800
C917        C  0.84407920  0.00072976  0.03220868    -0.06600
C918        C  0.82271729  0.54205464  0.00803570    -0.06500
C919        C  0.78669218  0.95796697  0.05165338    -0.31800
N920        N  0.78526968  0.93059424  0.02492561     0.14700
C921        C  0.79165692  0.93869242  0.50697936    -0.31900
H922        H  0.79345238  0.91701005  0.48504342     0.16600
C923        C  0.88209243  0.49941117  0.05489756    -0.30800
N924        N  0.89927499  0.48452112  0.02412916     0.13400
C925        C  0.88398548  0.46196694  0.49661134    -0.30800
C926        C  0.81266846  0.57373793  0.00625179    -0.31100
N927        N  0.80912163  0.58154713  0.96078763     0.13900
H928        H  0.80693036  0.58926310  0.03570572     0.16500
C929        C  0.80795363  0.52921167  0.42872481    -0.31100
H930        H  0.79320811  0.51819420  0.40600146     0.16500
H931        H  0.89195706  0.44583892  0.46960490     0.16500
H932        H  0.78131152  0.95838248  0.08761893     0.16600
H933        H  0.88849730  0.50796716  0.08888457     0.16500
C934        C  0.83678088  0.47101115  0.20497484     0.30400
C935        C  0.84192158  0.43975431  0.28643870     0.30400
C936        C  0.80587943  0.94181164  0.20822121    -0.05800
C937        C  0.85188489  0.95997993  0.20969501    -0.06600
C938        C  0.83330407  0.49216182  0.24812380    -0.06500
C939        C  0.81026784  0.92647519  0.25094451    -0.05800
C940        C  0.85574545  0.94374829  0.25141088    -0.06600
C941        C  0.83453205  0.47666580  0.28961662    -0.06500
C942        C  0.80122224  0.89512187  0.24633113    -0.31800
N943        N  0.79054714  0.89117672  0.20307255     0.14700
C944        C  0.79390100  0.91901540  0.17898835    -0.31900
H945        H  0.78928205  0.92164186  0.14247486     0.16600
C946        C  0.89353033  0.42775898  0.25845358    -0.30800
N947        N  0.90742015  0.44005865  0.22254259     0.13400
C948        C  0.88995049  0.45609338  0.19386929    -0.30800
C949        C  0.82169907  0.49790532  0.32117664    -0.31100
N950        N  0.81576225  0.52669547  0.29994861     0.13900
H951        H  0.81505449  0.49126809  0.35492411     0.16500
C952        C  0.82295198  0.52316520  0.25509590    -0.31100
H953        H  0.81786299  0.54073293  0.22842692     0.16500
H954        H  0.89585698  0.46973774  0.16373822     0.16500
H955        H  0.80303470  0.87609175  0.27199499     0.16600
H956        H  0.90277901  0.41524097  0.28762682     0.16500
O957        O  0.55160585  0.69336906  0.00771325    -0.74000
O958        O  0.47754868  0.70361779  0.51504599    -0.74100
O959        O  0.51404745  0.69941574  0.43899113    -0.74100
O960        O  0.51421861  0.69804216  0.08079779    -0.74200
O961        O  0.51982369  0.75126968  0.08363096    -0.74100
O962        O  0.51542776  0.75315984  0.43844862    -0.74100
O963        O  0.47851569  0.75846457  0.01727489    -0.74100
O964        O  0.55649006  0.75184420  0.50360026    -0.74100
Ni965      Ni  0.51325104  0.69740720  0.00908794     1.25400
Ni966      Ni  0.51744317  0.75466454  0.01226825     1.25400
C967        C  0.56618048  0.71849031  0.00503242     0.88100
C968        C  0.46392201  0.73303433  0.01625128     0.88100
C969        C  0.51480414  0.72581231  0.41405051     0.88100
C970        C  0.51760125  0.72421573  0.10683751     0.88300
O971        O  0.54913869  0.68394969  0.26188739    -0.74000
O972        O  0.47540800  0.70968735  0.25607844    -0.74100
O973        O  0.51329932  0.69725214  0.18786650    -0.74100
O974        O  0.51090484  0.69837000  0.33152576    -0.74200
O975        O  0.52123784  0.75043632  0.33251859    -0.74100
O976        O  0.52451524  0.74903352  0.18972060    -0.74100
O977        O  0.48587004  0.76229071  0.25735699    -0.74100
O978        O  0.56073343  0.73611920  0.26514707    -0.74100
Ni979      Ni  0.51186315  0.69560907  0.25951430     1.25400
Ni980      Ni  0.52359387  0.75120735  0.26129845     1.25400
C981        C  0.56712133  0.70556383  0.26484590     0.88100
C982        C  0.46855369  0.73977931  0.25332795     0.88100
C983        C  0.51861286  0.72337995  0.16415553     0.88100
C984        C  0.51552617  0.72476775  0.35666507     0.88300
O985        O  0.05553151  0.51901147  0.49421171    -0.74000
O986        O  0.97911286  0.50443577  0.99726955    -0.74100
O987        O  0.01854675  0.51537095  0.06497311    -0.74100
O988        O  0.01848042  0.50948424  0.42078159    -0.74200
O989        O  0.01858293  0.96386111  0.41952881    -0.74100
O990        O  0.01876071  0.96418310  0.06110716    -0.74100
O991        O  0.98167491  0.95102593  0.49142296    -0.74100
O992        O  0.05412271  0.97813813  0.98859275    -0.74100
Ni993      Ni  0.01539578  0.51795202  0.99338131     1.25400
Ni994      Ni  0.01759936  0.96341009  0.98960706     1.25400
C995        C  0.07068362  0.50671238  0.98928723     0.88100
C996        C  0.97292320  0.47435840  0.99651932     0.88100
C997        C  0.02488022  0.48881116  0.08792462     0.88100
C998        C  0.02394441  0.48316911  0.39559766     0.88300
O999        O  0.06180377  0.51739894  0.24546926    -0.74000
O1000       O  0.98491950  0.50657806  0.23979517    -0.74100
O1001       O  0.02205482  0.51070693  0.31458893    -0.72500
O1002       O  0.02365803  0.51386788  0.17159098    -0.74200
O1003       O  0.01794232  0.96235779  0.16788054    -0.74100
O1004       O  0.01620774  0.96179669  0.31159845    -0.74100
O1005       O  0.97921071  0.95674666  0.23646923    -0.74100
O1006       O  0.05564240  0.96587758  0.24143461    -0.74100
Ni1007     Ni  0.02299556  0.51395038  0.24312500     1.25400
Ni1008     Ni  0.01748574  0.95989713  0.23947543     1.25400
C1009       C  0.07753763  0.49209093  0.24336037     0.88100
C1010       C  0.97581189  0.47767695  0.23583212     0.88100
C1011       C  0.02501550  0.48364857  0.33789663     0.88100
C1012       C  0.02626975  0.48766505  0.14514355     0.88300
C1013       C  0.32614691  0.75807920  0.47108895     0.30400
C1014       C  0.31786805  0.79462322  0.05234992     0.30400
C1015       C  0.30834529  0.74203834  0.50600749    -0.05800
C1016       C  0.35188822  0.76249979  0.50082982    -0.06600
C1017       C  0.31318995  0.79298988  0.46625450    -0.06500
C1018       C  0.30031082  0.76262708  0.04788279    -0.05800
C1019       C  0.34727149  0.78101217  0.04355677    -0.06600
C1020       C  0.31170117  0.81247025  0.00779531    -0.06500
C1021       C  0.28323269  0.74297317  0.07401107    -0.31800
N1022       N  0.27980189  0.71396770  0.05106577     0.14700
C1023       C  0.29729992  0.71181150  0.50906755    -0.31900
H1024       H  0.29932690  0.69158337  0.48443845     0.16600
C1025       C  0.37349151  0.78223444  0.06238644    -0.30800
N1026       N  0.39049339  0.76253007  0.03675550     0.13400
C1027       C  0.37776189  0.74903840  0.50035530    -0.30800
C1028       C  0.29688893  0.84044947  0.00011899    -0.31100
N1029       N  0.28742801  0.83937278  0.95611524     0.13900
H1030       H  0.29105748  0.85882372  0.02603641     0.16500
C1031       C  0.29451451  0.80886714  0.43684552    -0.31100
H1032       H  0.28639559  0.79952752  0.40441239     0.16500
H1033       H  0.38584175  0.73135375  0.47545518     0.16500
H1034       H  0.27441021  0.74822888  0.10752647     0.16600
H1035       H  0.38028119  0.79669038  0.09178514     0.16500
C1036       C  0.32696630  0.76123110  0.20949762     0.30400
C1037       C  0.33419527  0.72935815  0.28959313     0.30400
C1038       C  0.30815140  0.73194226  0.21578012    -0.05800
C1039       C  0.35508388  0.74558469  0.21550466    -0.06600
C1040       C  0.32339361  0.78162453  0.25324040    -0.06500
C1041       C  0.31198981  0.71578471  0.25829530    -0.05800
C1042       C  0.35855210  0.72847848  0.25666680    -0.06600
C1043       C  0.32682973  0.76606633  0.29434918    -0.06500
C1044       C  0.30579770  0.68364030  0.25100264    -0.31800
N1045       N  0.29777167  0.67931360  0.20650534     0.14700
C1046       C  0.30009071  0.70792246  0.18412210    -0.31900
H1047       H  0.29917478  0.70999971  0.14682447     0.16600
C1048       C  0.38469667  0.71711333  0.25782580    -0.30800
N1049       N  0.39738891  0.72833885  0.21995045     0.13400
C1050       C  0.37962250  0.74530510  0.19315937    -0.30800
C1051       C  0.32127682  0.78936746  0.32893212    -0.31100
N1052       N  0.31452523  0.81815294  0.30855740     0.13900
H1053       H  0.32201940  0.78563174  0.36564656     0.16500
C1054       C  0.31604796  0.81352313  0.26211110    -0.31100
H1055       H  0.31021681  0.83164062  0.23662660     0.16500
H1056       H  0.38471261  0.75778601  0.16154904     0.16500
H1057       H  0.30897330  0.66405875  0.27549775     0.16600
H1058       H  0.39450207  0.70324017  0.28516223     0.16500
C1059       C  0.20502028  0.00736460  0.04552625     0.30400
C1060       C  0.19899352  0.03683007  0.46393373     0.30400
C1061       C  0.21079969  0.98642291  0.00255831    -0.05800
C1062       C  0.17623423  0.02121088  0.03616950    -0.06600
C1063       C  0.23389676  0.53454200  0.03465590    -0.06500
C1064       C  0.20676837  0.00010437  0.46179079    -0.05800
C1065       C  0.17287089  0.03720714  0.49329216    -0.06600
C1066       C  0.22680923  0.55133838  0.49218404    -0.06500
C1067       C  0.21196673  0.97529403  0.42900179    -0.31800
N1068       N  0.21890753  0.94726428  0.45162341     0.14700
C1069       C  0.21905886  0.95453195  0.99543902    -0.31900
H1070       H  0.22487927  0.93718777  0.02198977     0.16600
C1071       C  0.14616221  0.03290488  0.48106806    -0.30800
N1072       N  0.13309141  0.01921592  0.51690622     0.13400
C1073       C  0.15125264  0.01066387  0.04929395    -0.30800
C1074       C  0.23257558  0.58370933  0.49837452    -0.31100
N1075       N  0.23767876  0.58966108  0.54379986     0.13900
H1076       H  0.23118499  0.60228735  0.47195809     0.16500
C1077       C  0.24014095  0.56018248  0.06525944    -0.31100
H1078       H  0.23993703  0.55945760  0.10266369     0.16500
H1079       H  0.14656040  0.99681809  0.07985128     0.16500
H1080       H  0.20984516  0.97736898  0.39192050     0.16600
H1081       H  0.13744263  0.03521045  0.44668136     0.16500
C1082       C  0.20728020  0.00442621  0.28681727     0.30400
C1083       C  0.21588289  0.97108867  0.20549094     0.30400
C1084       C  0.22542187  0.97293065  0.28996208    -0.05800
C1085       C  0.18158894  0.99206683  0.26287397    -0.06600
C1086       C  0.23194994  0.52282308  0.24326156    -0.06500
C1087       C  0.22856444  0.95591531  0.24806360    -0.05800
C1088       C  0.18564837  0.97556625  0.22043589    -0.06600
C1089       C  0.23801787  0.50601284  0.20247630    -0.06500
C1090       C  0.24431312  0.92867567  0.25517435    -0.31800
N1091       N  0.25189526  0.92868055  0.30039056     0.14700
C1092       C  0.24144403  0.95594370  0.32188946    -0.31900
H1093       H  0.24640363  0.96326317  0.35706053     0.16600
C1094       C  0.16004442  0.96760663  0.20417073    -0.30800
N1095       N  0.14136801  0.97813088  0.23568823     0.13400
C1096       C  0.15428366  0.99208099  0.27227179    -0.30800
C1097       C  0.25309975  0.52795009  0.17695764    -0.31100
N1098       N  0.25321579  0.55726170  0.19968391     0.13900
H1099       H  0.26428510  0.52350089  0.14546509     0.16500
C1100       C  0.24047431  0.55423154  0.24052955    -0.31100
H1101       H  0.23839882  0.57334476  0.26695836     0.16500
H1102       H  0.14423286  0.00014989  0.30393360     0.16500
H1103       H  0.25021703  0.91031615  0.22929567     0.16600
H1104       H  0.15468594  0.95576248  0.17163423     0.16500
C1105       C  0.18928924  0.55470831  0.37931892    -0.13000
C1106       C  0.20116065  0.05203836  0.41715819     0.09200
C1107       C  0.22682571  0.04837589  0.39671302    -0.13000
C1108       C  0.22865576  0.03326528  0.35348041    -0.13000
C1109       C  0.20492690  0.02557534  0.32946010     0.09200
C1110       C  0.19258272  0.54221704  0.33454429    -0.13000
H1111       H  0.16986080  0.56423867  0.38959524     0.13200
H1112       H  0.24507555  0.04930519  0.41758540     0.13200
H1113       H  0.24825912  0.02520064  0.34064414     0.13200
H1114       H  0.17625583  0.54505968  0.30990742     0.13200
C1115       C  0.19353718  0.96102401  0.09808762    -0.13000
C1116       C  0.21121062  0.98591004  0.08563589     0.09200
C1117       C  0.25071443  0.47830905  0.09390117    -0.13000
C1118       C  0.25695350  0.45968074  0.13281559    -0.13000
C1119       C  0.22257562  0.95095108  0.16201188     0.09200
C1120       C  0.20082988  0.94098564  0.13494860    -0.13000
H1121       H  0.17532455  0.95608725  0.07880056     0.13200
H1122       H  0.26658415  0.49113099  0.07662138     0.13200
H1123       H  0.27666668  0.46179364  0.14887376     0.13200
H1124       H  0.18739025  0.92257773  0.14707183     0.13200
C1125       C  0.25981958  0.64606482  0.18344039    -0.13000
C1126       C  0.28771546  0.64915173  0.18863824     0.09200
C1127       C  0.30442824  0.62097433  0.18808000    -0.13000
C1128       C  0.29313468  0.58997281  0.18606389    -0.13000
C1129       C  0.26505093  0.58701940  0.18556278     0.09200
C1130       C  0.24854776  0.61518827  0.18220628    -0.13000
H1131       H  0.24669148  0.66755366  0.18472716     0.13200
H1132       H  0.32597469  0.62305986  0.19306629     0.13200
H1133       H  0.30606276  0.56848651  0.18958696     0.13200
H1134       H  0.22681674  0.61321151  0.18237881     0.13200
C1135       C  0.25582784  0.87241249  0.32613080    -0.13000
C1136       C  0.26769270  0.90275313  0.32021342     0.09200
C1137       C  0.29581317  0.90490681  0.32224492    -0.13000
C1138       C  0.31193187  0.87654058  0.32598488    -0.13000
C1139       C  0.30008475  0.84581005  0.32773124     0.09200
C1140       C  0.27191307  0.84417192  0.33022884    -0.13000
H1141       H  0.23414717  0.87034448  0.32350293     0.13200
H1142       H  0.30521234  0.92804337  0.31637898     0.13200
H1143       H  0.33356053  0.87814220  0.32213689     0.13200
H1144       H  0.26239836  0.82065814  0.32969347     0.13200
C1145       C  0.28455103  0.65764567  0.07685447    -0.13000
C1146       C  0.26762640  0.68457959  0.06644076     0.09200
C1147       C  0.24235295  0.67965534  0.55392207    -0.13000
C1148       C  0.23063394  0.64891443  0.55238561    -0.13000
C1149       C  0.24624685  0.62065297  0.56152387     0.09200
C1150       C  0.27508082  0.62577163  0.07342720    -0.13000
H1151       H  0.30579054  0.66123899  0.08355482     0.13200
H1152       H  0.23070933  0.70082420  0.54274063     0.13200
H1153       H  0.21006246  0.64679182  0.54006871     0.13200
H1154       H  0.28905996  0.60537438  0.07806545     0.13200
C1155       C  0.28082750  0.89548037  0.93071767    -0.13000
C1156       C  0.27008878  0.86461753  0.93780254     0.09200
C1157       C  0.23963341  0.85972559  0.44249628    -0.13000
C1158       C  0.22276611  0.88775180  0.43984022    -0.13000
C1159       C  0.23373872  0.91886957  0.43487784     0.09200
C1160       C  0.26391541  0.92312792  0.92744868    -0.13000
H1161       H  0.30246490  0.89841964  0.93139774     0.13200
H1162       H  0.23094536  0.83642848  0.45005620     0.13200
H1163       H  0.20136688  0.88559849  0.44596750     0.13200
H1164       H  0.27284260  0.94696380  0.92659770     0.13200
C1165       C  0.35538353  0.74133069  0.40371687    -0.13000
C1166       C  0.33061940  0.73937505  0.42655689     0.09200
C1167       C  0.30951131  0.72287325  0.40456290    -0.13000
C1168       C  0.31324358  0.70925739  0.36045050    -0.13000
C1169       C  0.33737442  0.71465651  0.33643261     0.09200
C1170       C  0.35960579  0.72597416  0.36150040    -0.13000
H1171       H  0.37062622  0.75811422  0.41505307     0.13200
H1172       H  0.28946442  0.72306071  0.41926585     0.13200
H1173       H  0.29554680  0.70051144  0.34241394     0.13200
H1174       H  0.37816531  0.73185907  0.34460085     0.13200
C1175       C  0.29469963  0.79108615  0.15848009    -0.13000
C1176       C  0.32162046  0.78338347  0.17059680     0.09200
C1177       C  0.34128141  0.80560864  0.15717118    -0.13000
C1178       C  0.33544914  0.82562261  0.11964641    -0.13000
C1179       C  0.31272533  0.81747718  0.09364095     0.09200
C1180       C  0.29002126  0.81049825  0.11987307    -0.13000
H1181       H  0.27790349  0.78024059  0.17601823     0.13200
H1182       H  0.36068175  0.80695302  0.17439057     0.13200
H1183       H  0.35111813  0.84008797  0.10475590     0.13200
H1184       H  0.27007868  0.81127335  0.10429585     0.13200
C1185       C  0.09515876  0.99789987  0.24641602    -0.16000
C1186       C  0.11265408  0.97441073  0.23124279    -0.31200
H1187       H  0.11484187  0.51863768  0.25929077     0.13000
H1188       H  0.10516772  0.95277278  0.21348312     0.13600
C1189       C  0.08722888  0.01952115  0.98758621    -0.16000
C1190       C  0.10656471  0.00487358  0.01296819    -0.31200
H1191       H  0.09109208  0.04407478  0.47234829     0.13000
H1192       H  0.11251841  0.48245804  0.03711749     0.13600
C1193       C  0.44022715  0.74778735  0.24440641    -0.16000
C1194       C  0.42592217  0.72822328  0.21611129    -0.31200
H1195       H  0.43046001  0.76784770  0.26359571     0.13000
H1196       H  0.43576539  0.70849284  0.19631371     0.13600
C1197       C  0.41975860  0.76056465  0.03983693    -0.16000
C1198       C  0.43402291  0.73547413  0.01975041    -0.31200
H1199       H  0.43187907  0.77804534  0.55917041     0.13000
H1200       H  0.42328617  0.71468146  0.00585623     0.13600
C1201       C  0.93605564  0.44349065  0.22363374    -0.16000
C1202       C  0.94668337  0.47322102  0.22892238    -0.31200
H1203       H  0.93655758  0.92816704  0.21055968     0.13000
H1204       H  0.93346460  0.49475440  0.22883444     0.13600
C1205       C  0.86121991  0.45856579  0.39944589    -0.13000
C1206       C  0.82716433  0.95755017  0.42038866     0.09200
C1207       C  0.80707146  0.93827212  0.40012007    -0.13000
C1208       C  0.81124187  0.92388791  0.35633042    -0.13000
C1209       C  0.84527208  0.42699724  0.33475159     0.09200
C1210       C  0.86663704  0.44137840  0.35904150    -0.13000
H1211       H  0.87561738  0.47661554  0.41050379     0.13200
H1212       H  0.78710467  0.93739048  0.41479478     0.13200
H1213       H  0.79402781  0.91334821  0.33893856     0.13200
H1214       H  0.88489353  0.44812744  0.34186352     0.13200
C1215       C  0.79027978  0.99966775  0.14758053    -0.13000
C1216       C  0.83197115  0.49302503  0.16541506     0.09200
C1217       C  0.85151442  0.51609359  0.15466221    -0.13000
C1218       C  0.84584600  0.53842937  0.11992540    -0.13000
C1219       C  0.80787084  0.03079366  0.08655286     0.09200
C1220       C  0.78526290  0.02002498  0.11011174    -0.13000
H1221       H  0.77383144  0.98663891  0.16280555     0.13200
H1222       H  0.87067389  0.51694880  0.17272494     0.13200
H1223       H  0.86171869  0.55362410  0.10729286     0.13200
H1224       H  0.76571926  0.01949848  0.09310133     0.13200
C1225       C  0.94437251  0.46627568  0.00044605    -0.16000
C1226       C  0.92811661  0.48438088  0.02861611    -0.31200
H1227       H  0.92566533  0.94527350  0.98275579     0.13000
H1228       H  0.93684158  0.50081788  0.54808056     0.13600
C1229       C  0.79398769  0.61294050  0.31199851    -0.13000
C1230       C  0.76652511  0.61061280  0.30099050     0.09200
C1231       C  0.75482163  0.57976190  0.29985316    -0.13000
C1232       C  0.77072185  0.55151598  0.30695400    -0.13000
C1233       C  0.79863933  0.55363771  0.31437127     0.09200
C1234       C  0.80993753  0.58466864  0.31825024    -0.13000
H1235       H  0.80337889  0.63652565  0.31274111     0.13200
H1236       H  0.73366079  0.57752197  0.29123866     0.13200
H1237       H  0.76181571  0.52784192  0.30188523     0.13200
H1238       H  0.83155006  0.58680902  0.32217333     0.13200
C1239       C  0.73398955  0.83401491  0.19170027    -0.13000
C1240       C  0.74787367  0.80401508  0.18572308     0.09200
C1241       C  0.77573051  0.80394326  0.17713098    -0.13000
C1242       C  0.78976845  0.83329208  0.17854473    -0.13000
C1243       C  0.77602903  0.86297196  0.18820743     0.09200
C1244       C  0.74795445  0.86323634  0.19304776    -0.13000
H1245       H  0.71268032  0.83445728  0.19978282     0.13200
H1246       H  0.78691257  0.78100159  0.17401665     0.13200
H1247       H  0.81153460  0.83264755  0.17577209     0.13200
H1248       H  0.73718313  0.88585086  0.20149037     0.13200
C1249       C  0.61431878  0.70966411  0.29148037    -0.16000
C1250       C  0.59547276  0.69438562  0.26611587    -0.31200
H1251       H  0.60835833  0.72998346  0.31439932     0.13000
H1252       H  0.60077321  0.67243222  0.24616497     0.13600
C1253       C  0.75591325  0.64019927  0.91871682    -0.13000
C1254       C  0.76749042  0.67033434  0.93011363     0.09200
C1255       C  0.77743058  0.64356443  0.43601589    -0.13000
C1256       C  0.79253850  0.61560962  0.42412005    -0.13000
C1257       C  0.79655578  0.61116268  0.94424209     0.09200
C1258       C  0.77048759  0.61083091  0.92502420    -0.13000
H1259       H  0.73474191  0.63936041  0.90949118     0.13200
H1260       H  0.78527830  0.66707872  0.42713578     0.13200
H1261       H  0.81220303  0.61831753  0.40859349     0.13200
H1262       H  0.76062936  0.58784369  0.91895951     0.13200
C1263       C  0.77178992  0.84103753  0.03712644    -0.13000
C1264       C  0.74850255  0.84219128  0.06510698     0.09200
C1265       C  0.73698403  0.87266404  0.57581245    -0.13000
C1266       C  0.74759564  0.90405311  0.57610256    -0.13000
C1267       C  0.77426061  0.90034249  0.04049174     0.09200
C1268       C  0.78443829  0.86987776  0.02454016    -0.13000
H1269       H  0.77835139  0.81812019  0.02100047     0.13200
H1270       H  0.71533005  0.86997922  0.57440747     0.13200
H1271       H  0.73394606  0.92502189  0.57444235     0.13200
H1272       H  0.80147987  0.86846058  0.00107846     0.13200
C1273       C  0.70560902  0.78499002  0.38973222    -0.13000
C1274       C  0.72545132  0.77346193  0.41987748     0.09200
C1275       C  0.74934790  0.76064186  0.40023143    -0.13000
C1276       C  0.74684301  0.74325816  0.35851728    -0.13000
C1277       C  0.72111731  0.74185864  0.33824723     0.09200
C1278       C  0.70250741  0.76751978  0.34868871    -0.13000
H1279       H  0.68958736  0.80137716  0.40180807     0.13200
H1280       H  0.76714875  0.75644677  0.42157957     0.13200
H1281       H  0.76371140  0.72869482  0.34533811     0.13200
H1282       H  0.68513670  0.77272800  0.32679553     0.13200
C1283       C  0.68006433  0.71473763  0.10479572    -0.13000
C1284       C  0.70352713  0.71078616  0.07861349     0.09200
C1285       C  0.72415304  0.68952920  0.09488927    -0.13000
C1286       C  0.72133034  0.67358488  0.13707586    -0.13000
C1287       C  0.69901386  0.68109852  0.16549820     0.09200
C1288       C  0.67692429  0.69811981  0.14550669    -0.13000
H1289       H  0.66472319  0.73280679  0.09567070     0.13200
H1290       H  0.74393371  0.68859739  0.07954753     0.13200
H1291       H  0.73898731  0.66131272  0.15140024     0.13200
H1292       H  0.65958821  0.70609771  0.16528981     0.13200
C1293       C  0.59540674  0.71366207  0.99940730    -0.16000
C1294       C  0.61019683  0.73459492  0.97538948    -0.31200
H1295       H  0.60470119  0.69180694  0.01384931     0.13000
H1296       H  0.60278183  0.76243863  0.45328941     0.13600
C1297       C  0.70554701  0.77051517  0.96185066     0.30400
C1298       C  0.70431866  0.73652876  0.54942471     0.30400
C1299       C  0.70503812  0.78815550  0.00910849    -0.05800
C1300       C  0.68074057  0.74959089  0.96482833    -0.06600
C1301       C  0.72940990  0.74454525  0.96395870    -0.06500
C1302       C  0.72024266  0.76864641  0.54798198    -0.05800
C1303       C  0.68045531  0.74185912  0.51645257    -0.06600
C1304       C  0.72193563  0.71244609  0.52034071    -0.06500
C1305       C  0.73185352  0.79065239  0.57920090    -0.31800
N1306       N  0.74314533  0.81488638  0.55457577     0.14700
C1307       C  0.71393341  0.81877135  0.01891781    -0.31900
H1308       H  0.71485525  0.83858056  0.99442919     0.16600
C1309       C  0.65391963  0.73391887  0.51867486    -0.30800
N1310       N  0.63916014  0.73200100  0.97404005     0.13400
C1311       C  0.65473410  0.75097555  0.94751362    -0.30800
C1312       C  0.72939853  0.67944904  0.52019170    -0.31100
N1313       N  0.74000370  0.67141415  0.47752980     0.13900
H1314       H  0.72692820  0.66254510  0.54835942     0.16500
C1315       C  0.74294587  0.72576303  0.92961215    -0.31100
H1316       H  0.74515505  0.73190527  0.89354024     0.16500
H1317       H  0.64695888  0.76676380  0.92050489     0.16500
H1318       H  0.73256583  0.78872245  0.61663887     0.16600
H1319       H  0.64412093  0.72334107  0.54832812     0.16500
C1320       C  0.70736365  0.77978197  0.72736850     0.30400
C1321       C  0.70996167  0.81392750  0.80898996     0.30400
C1322       C  0.70961045  0.81732282  0.72304600    -0.05800
C1323       C  0.68347019  0.77581136  0.76006282    -0.06600
C1324       C  0.73184385  0.77115426  0.75722990    -0.06500
C1325       C  0.71075977  0.83426637  0.76523985    -0.05800
C1326       C  0.68363887  0.79396240  0.80107370    -0.06600
C1327       C  0.73318746  0.78735661  0.80004267    -0.06500
C1328       C  0.71716723  0.86592550  0.75656318    -0.31800
N1329       N  0.72034767  0.86907893  0.71000591     0.14700
C1330       C  0.71624023  0.83953014  0.68908943    -0.31900
H1331       H  0.71953922  0.83438325  0.65261687     0.16600
C1332       C  0.65698722  0.79300252  0.81745716    -0.30800
N1333       N  0.64201025  0.77372017  0.78871728     0.13400
C1334       C  0.65822935  0.76296215  0.75373312    -0.30800
C1335       C  0.75513739  0.77235231  0.82304788    -0.31100
N1336       N  0.76676213  0.74920978  0.79476402     0.13900
H1337       H  0.76205102  0.77637498  0.85816338     0.16500
C1338       C  0.75360200  0.74978674  0.75365463    -0.31100
H1339       H  0.75945308  0.73435421  0.72436266     0.16500
H1340       H  0.65144214  0.74933674  0.72337004     0.16500
H1341       H  0.72196965  0.88445639  0.78252435     0.16600
H1342       H  0.64820613  0.80659937  0.84635954     0.16500
C1343       C  0.82408637  0.98808357  0.95537079     0.30400
C1344       C  0.82136942  0.01550142  0.54082534     0.30400
C1345       C  0.80296269  0.96972500  0.98241341    -0.05800
C1346       C  0.84810907  0.98665235  0.98864944    -0.06600
C1347       C  0.82583794  0.53051325  0.96331044    -0.06500
C1348       C  0.79953335  0.98835362  0.53812363    -0.05800
C1349       C  0.84745440  0.99580621  0.53598696    -0.06600
C1350       C  0.83126309  0.53294247  0.49292317    -0.06500
C1351       C  0.79068540  0.96697503  0.57213573    -0.31800
N1352       N  0.78472913  0.93775585  0.55201392     0.14700
C1353       C  0.79619410  0.93708148  0.98290307    -0.31900
H1354       H  0.80014829  0.91913544  0.95545825     0.16600
C1355       C  0.88285311  0.49694726  0.55538328    -0.30800
N1356       N  0.89932402  0.47735550  0.52913393     0.13400
C1357       C  0.88552944  0.47821760  0.98430962    -0.30800
C1358       C  0.82024621  0.56295809  0.48336130    -0.31100
N1359       N  0.80515214  0.56050284  0.44492159     0.13900
H1360       H  0.81841230  0.58337331  0.50779470     0.16500
C1361       C  0.81660001  0.55519943  0.93434186    -0.31100
H1362       H  0.81419891  0.55384274  0.89711281     0.16500
H1363       H  0.89414931  0.46726845  0.95296666     0.16500
H1364       H  0.79241509  0.97076990  0.60917422     0.16600
H1365       H  0.88990742  0.51357475  0.58219313     0.16500
C1366       C  0.82687377  0.56495342  0.69434003     0.30400
C1367       C  0.83118135  0.53579980  0.77812082     0.30400
C1368       C  0.79609662  0.03215475  0.70403649    -0.05800
C1369       C  0.84502111  0.04225165  0.70424194    -0.06600
C1370       C  0.82412913  0.58753327  0.73640932    -0.06500
C1371       C  0.80044416  0.01546194  0.74511863    -0.05800
C1372       C  0.84683907  0.02527440  0.74556620    -0.06600
C1373       C  0.82589428  0.57330029  0.77971601    -0.06500
C1374       C  0.79093071  0.98445394  0.73859142    -0.31800
N1375       N  0.77683026  0.98295084  0.69878757     0.14700
C1376       C  0.77943585  0.01178640  0.67708541    -0.31900
H1377       H  0.77033680  0.01624436  0.64374508     0.16600
C1378       C  0.88093013  0.51580912  0.75099637    -0.30800
N1379       N  0.89603744  0.52306268  0.71369478     0.13400
C1380       C  0.88041742  0.54183378  0.68495505    -0.30800
C1381       C  0.82096669  0.59853221  0.81210905    -0.31100
N1382       N  0.81718048  0.62702339  0.78866171     0.13900
H1383       H  0.81956612  0.59644585  0.84950002     0.16500
C1384       C  0.81906595  0.62031460  0.74242905    -0.31100
H1385       H  0.81551047  0.63784349  0.71506106     0.16500
H1386       H  0.88807478  0.55201452  0.65334593     0.16500
H1387       H  0.79503568  0.96341075  0.76001745     0.16600
H1388       H  0.88825921  0.50173763  0.78018425     0.16500
O1389       O  0.55486774  0.69764824  0.50558803    -0.74000
O1390       O  0.47482849  0.70458918  0.01079464    -0.74100
O1391       O  0.51346063  0.70051447  0.93746721    -0.74100
O1392       O  0.51917275  0.70153616  0.58202014    -0.74200
O1393       O  0.52105175  0.75523230  0.58181957    -0.74100
O1394       O  0.51554216  0.75419093  0.94047424    -0.74100
O1395       O  0.47918861  0.75781221  0.51616148    -0.74100
O1396       O  0.55570688  0.74736578  0.00716142    -0.74100
Ni1397     Ni  0.51627732  0.69879868  0.51051059     1.25400
Ni1398     Ni  0.51802199  0.75631358  0.51006663     1.25400
C1399       C  0.56824545  0.72373239  0.50113700     0.88100
C1400       C  0.46559092  0.73167274  0.51811453     0.88100
C1401       C  0.51519479  0.72766484  0.91427262     0.88100
C1402       C  0.52089001  0.72863472  0.60662347     0.88300
O1403       O  0.56297343  0.71001226  0.76344747    -0.74000
O1404       O  0.48737046  0.69391351  0.75654808    -0.74100
O1405       O  0.52592013  0.70244531  0.68832218    -0.74100
O1406       O  0.52278538  0.70196092  0.83165607    -0.74200
O1407       O  0.51378280  0.75491606  0.83273119    -0.74100
O1408       O  0.51890754  0.75578695  0.68942640    -0.74100
O1409       O  0.47879256  0.74748697  0.75490208    -0.74100
O1410       O  0.55481820  0.76360442  0.76702180    -0.74100
Ni1411     Ni  0.52520749  0.70040040  0.76000574     1.25400
Ni1412     Ni  0.51636257  0.75727618  0.76112232     1.25400
C1413       C  0.57150068  0.73920269  0.76720272     0.88100
C1414       C  0.47076237  0.71799205  0.75311641     0.88100
C1415       C  0.52213147  0.72903536  0.66414302     0.88100
C1416       C  0.51723522  0.72823286  0.85685233     0.88300
O1417       O  0.05219897  0.52878156  0.98975654    -0.74000
O1418       O  0.98018897  0.50087001  0.49292724    -0.74100
O1419       O  0.01774434  0.51100211  0.56383974    -0.74100
O1420       O  0.01361821  0.51635121  0.92141963    -0.74200
O1421       O  0.01584717  0.96611480  0.91804735    -0.74100
O1422       O  0.01817475  0.96654137  0.56277250    -0.74100
O1423       O  0.98000217  0.95238393  0.99180686    -0.74100
O1424       O  0.05482254  0.97937686  0.49185560    -0.74100
Ni1425     Ni  0.01760438  0.51183366  0.49259478     1.25400
Ni1426     Ni  0.01878594  0.96345425  0.49129269     1.25400
C1427       C  0.07250879  0.49508705  0.49673458     0.88100
C1428       C  0.97275018  0.47113583  0.49325447     0.88100
C1429       C  0.02188611  0.48483752  0.58848195     0.88100
C1430       C  0.01960670  0.49046904  0.89556372     0.88300
O1431       O  0.05842612  0.51405048  0.74569158    -0.74000
O1432       O  0.98143932  0.51776790  0.73684710    -0.74100
O1433       O  0.01823094  0.51671221  0.81324015    -0.72500
O1434       O  0.02171238  0.51352445  0.66983272    -0.74200
O1435       O  0.01331130  0.96675558  0.66851762    -0.74100
O1436       O  0.01160887  0.96638063  0.81150612    -0.74100
O1437       O  0.97351416  0.96593230  0.73754575    -0.74100
O1438       O  0.05151907  0.96757539  0.74183562    -0.74100
Ni1439     Ni  0.01998179  0.51725338  0.74137920     1.25400
Ni1440     Ni  0.01255110  0.96487951  0.73984942     1.25400
C1441       C  0.07125934  0.48667142  0.74680513     0.88100
C1442       C  0.96819236  0.49140552  0.73637671     0.88100
C1443       C  0.01883769  0.49014718  0.83814367     0.88100
C1444       C  0.02144624  0.48605837  0.64571481     0.88300
C1445       C  0.32418678  0.75862216  0.97319272     0.30400
C1446       C  0.31931803  0.79258845  0.55155922     0.30400
C1447       C  0.30486280  0.74456565  0.00727403    -0.05800
C1448       C  0.34962711  0.76149719  0.00402244    -0.06600
C1449       C  0.31329299  0.79416290  0.96674432    -0.06500
C1450       C  0.30346522  0.75955337  0.54697117    -0.05800
C1451       C  0.34911090  0.78099598  0.54134548    -0.06600
C1452       C  0.31136923  0.81054923  0.50793494    -0.06500
C1453       C  0.28660268  0.73958723  0.57253918    -0.31800
N1454       N  0.28377626  0.71068237  0.54947123     0.14700
C1455       C  0.29343183  0.71469498  0.01085313    -0.31900
H1456       H  0.29605647  0.69387885  0.98740654     0.16600
C1457       C  0.37490508  0.78091379  0.56198391    -0.30800
N1458       N  0.39212494  0.76155491  0.53624644     0.13400
C1459       C  0.37561919  0.74864309  0.00257674    -0.30800
C1460       C  0.29515149  0.83765965  0.50189819    -0.31100
N1461       N  0.28528031  0.83695258  0.45814338     0.13900
H1462       H  0.28909509  0.85535657  0.52860639     0.16500
C1463       C  0.29541241  0.81029662  0.93639854    -0.31100
H1464       H  0.28673010  0.80051083  0.90466137     0.16500
H1465       H  0.38354676  0.73113471  0.97730605     0.16500
H1466       H  0.27671678  0.74486041  0.60504837     0.16600
H1467       H  0.38107639  0.79349992  0.59350767     0.16500
C1468       C  0.32525817  0.75764272  0.71061126     0.30400
C1469       C  0.33227674  0.72755604  0.79208709     0.30400
C1470       C  0.30582364  0.72900486  0.71852146    -0.05800
C1471       C  0.35331538  0.74153535  0.71730961    -0.06600
C1472       C  0.32190407  0.77913228  0.75345717    -0.06500
C1473       C  0.30970688  0.71371695  0.76164200    -0.05800
C1474       C  0.35657059  0.72523481  0.75901151    -0.06600
C1475       C  0.32536618  0.76458856  0.79525390    -0.06500
C1476       C  0.30244690  0.68171331  0.75620048    -0.31800
N1477       N  0.29340498  0.67667682  0.71236096     0.14700
C1478       C  0.29632166  0.70467690  0.68847509    -0.31900
H1479       H  0.29458460  0.70603110  0.65115150     0.16600
C1480       C  0.38301742  0.71483287  0.76182778    -0.30800
N1481       N  0.39644590  0.72643433  0.72472012     0.13400
C1482       C  0.37841812  0.74215553  0.69667997    -0.30800
C1483       C  0.32066523  0.78910496  0.82871379    -0.31100
N1484       N  0.31423355  0.81756636  0.80695292     0.13900
H1485       H  0.32208163  0.78639792  0.86560028     0.16500
C1486       C  0.31515175  0.81147368  0.76077589    -0.31100
H1487       H  0.30955139  0.82906507  0.73441893     0.16500
H1488       H  0.38374332  0.75505973  0.66554948     0.16500
H1489       H  0.30560904  0.66259252  0.78142714     0.16600
H1490       H  0.39237480  0.70235145  0.79085052     0.16500
C1491       C  0.20440822  0.00760939  0.54664199     0.30400
C1492       C  0.19907931  0.03732091  0.96329978     0.30400
C1493       C  0.20970402  0.98606282  0.50412317    -0.05800
C1494       C  0.17599012  0.02237643  0.53734241    -0.06600
C1495       C  0.22817769  0.53659764  0.53563456    -0.06500
C1496       C  0.20760202  0.00083322  0.96043228    -0.05800
C1497       C  0.17294284  0.03659103  0.99253423    -0.06600
C1498       C  0.22994579  0.54906765  0.99145588    -0.06500
C1499       C  0.21337132  0.97652859  0.92717708    -0.31800
N1500       N  0.22088424  0.94854618  0.94928775     0.14700
C1501       C  0.21723604  0.95384143  0.49764637    -0.31900
H1502       H  0.22277181  0.93665187  0.52456542     0.16600
C1503       C  0.14631791  0.03197731  0.97989909    -0.30800
N1504       N  0.13334372  0.01731519  0.01501339     0.13400
C1505       C  0.15092141  0.01287560  0.55131965    -0.30800
C1506       C  0.23480029  0.58186895  0.99676109    -0.31100
N1507       N  0.24168319  0.58833480  0.04137482     0.13900
H1508       H  0.23118937  0.60032278  0.97068423     0.16500
C1509       C  0.23402475  0.56170377  0.56727924    -0.31100
H1510       H  0.23258998  0.56081055  0.60463176     0.16500
H1511       H  0.14610224  0.99970039  0.58244038     0.16500
H1512       H  0.21128850  0.97877202  0.89014625     0.16600
H1513       H  0.13764241  0.03484242  0.94557703     0.16500
C1514       C  0.20624592  0.00514385  0.78762992     0.30400
C1515       C  0.21389449  0.97146273  0.70658611     0.30400
C1516       C  0.22579299  0.97457025  0.78999110    -0.05800
C1517       C  0.18027380  0.99127466  0.76600703    -0.06600
C1518       C  0.22306160  0.52046580  0.74365952    -0.06500
C1519       C  0.22844959  0.95750051  0.74815856    -0.05800
C1520       C  0.18389697  0.97451487  0.72374725    -0.06600
C1521       C  0.22836752  0.50450074  0.70186673    -0.06500
C1522       C  0.24597168  0.93162118  0.75373110    -0.31800
N1523       N  0.25501776  0.93214265  0.79811518     0.14700
C1524       C  0.24358130  0.95857561  0.82057138    -0.31900
H1525       H  0.24866863  0.96586845  0.85571397     0.16600
C1526       C  0.15807218  0.96633255  0.70844149    -0.30800
N1527       N  0.13953429  0.97693189  0.74027011     0.13400
C1528       C  0.15289016  0.99135849  0.77615999    -0.30800
C1529       C  0.24422876  0.52651674  0.67760641    -0.31100
N1530       N  0.24524878  0.55527910  0.70176431     0.13900
H1531       H  0.25591431  0.52213021  0.64665354     0.16500
C1532       C  0.23245446  0.55166296  0.74240652    -0.31100
H1533       H  0.23164944  0.56987240  0.77025989     0.16500
H1534       H  0.14309944  0.00030889  0.80762053     0.16500
H1535       H  0.25161735  0.91339176  0.72749785     0.16600
H1536       H  0.15244681  0.95470332  0.67589872     0.16500
C1537       C  0.18663821  0.55078469  0.88488727    -0.13000
C1538       C  0.20092018  0.05337914  0.91706143     0.09200
C1539       C  0.22648548  0.05026141  0.89612402    -0.13000
C1540       C  0.22814486  0.03499196  0.85297114    -0.13000
C1541       C  0.20426583  0.02666460  0.82983038     0.09200
C1542       C  0.18746441  0.53665427  0.84059362    -0.13000
H1543       H  0.16800328  0.56124983  0.89810356     0.13200
H1544       H  0.24484845  0.05147520  0.91665597     0.13200
H1545       H  0.24771714  0.02720502  0.83970573     0.13200
H1546       H  0.16967198  0.53810333  0.81895102     0.13200
C1547       C  0.19162703  0.96211685  0.59932174    -0.13000
C1548       C  0.20995909  0.98635102  0.58702756     0.09200
C1549       C  0.24203387  0.47860739  0.59300237    -0.13000
C1550       C  0.24740656  0.45858457  0.63080194    -0.13000
C1551       C  0.22020762  0.95111335  0.66328574     0.09200
C1552       C  0.19833818  0.94186252  0.63611431    -0.13000
H1553       H  0.17348678  0.95757454  0.57959722     0.13200
H1554       H  0.25862947  0.49042700  0.57623206     0.13200
H1555       H  0.26722100  0.45892556  0.64685371     0.13200
H1556       H  0.18475538  0.92341888  0.64758560     0.13200
C1557       C  0.25576018  0.64375257  0.68464518    -0.13000
C1558       C  0.28320485  0.64605318  0.69574359     0.09200
C1559       C  0.29882979  0.61720554  0.70067532    -0.13000
C1560       C  0.28680646  0.58660897  0.69757550    -0.13000
C1561       C  0.25893653  0.58451092  0.69014703     0.09200
C1562       C  0.24368598  0.61322349  0.68228841    -0.13000
H1563       H  0.24330833  0.66568611  0.68164617     0.13200
H1564       H  0.31993769  0.61856317  0.71016315     0.13200
H1565       H  0.29873010  0.56481321  0.70495657     0.13200
H1566       H  0.22206509  0.61202687  0.67746274     0.13200
C1567       C  0.25758833  0.87571372  0.82376877    -0.13000
C1568       C  0.27040051  0.90543057  0.81732870     0.09200
C1569       C  0.29867529  0.90591272  0.81821064    -0.13000
C1570       C  0.31380801  0.87663023  0.82200127    -0.13000
C1571       C  0.30087531  0.84655186  0.82492069     0.09200
C1572       C  0.27265699  0.84662714  0.82784453    -0.13000
H1573       H  0.23581026  0.87478909  0.82184611     0.13200
H1574       H  0.30890337  0.92842354  0.81175163     0.13200
H1575       H  0.33546784  0.87700955  0.81766642     0.13200
H1576       H  0.26223387  0.82371472  0.82812027     0.13200
C1577       C  0.28488640  0.65448785  0.57690965    -0.13000
C1578       C  0.26986578  0.68240920  0.56408775     0.09200
C1579       C  0.24046204  0.67909516  0.05568257    -0.13000
C1580       C  0.23104291  0.64712992  0.05163322    -0.13000
C1581       C  0.24858397  0.62018875  0.05884300     0.09200
C1582       C  0.27308407  0.62382349  0.57601296    -0.13000
H1583       H  0.30628962  0.65617405  0.58387760     0.13200
H1584       H  0.22735128  0.69931753  0.04567993     0.13200
H1585       H  0.21066381  0.64328015  0.03935104     0.13200
H1586       H  0.28554489  0.60225051  0.58214742     0.13200
C1587       C  0.27855763  0.89328627  0.43331785    -0.13000
C1588       C  0.26776706  0.86246311  0.44063832     0.09200
C1589       C  0.24200086  0.86152927  0.93871372    -0.13000
C1590       C  0.22502522  0.88937011  0.93593248    -0.13000
C1591       C  0.23589101  0.92058301  0.93181650     0.09200
C1592       C  0.26176332  0.92108677  0.43010529    -0.13000
H1593       H  0.30021214  0.89606940  0.43347423     0.13200
H1594       H  0.23340924  0.83811654  0.94591030     0.13200
H1595       H  0.20360247  0.88700291  0.94159701     0.13200
H1596       H  0.27082263  0.94482687  0.42871158     0.13200
C1597       C  0.35329022  0.74191939  0.90615367    -0.13000
C1598       C  0.32867055  0.73947548  0.92917266     0.09200
C1599       C  0.30771214  0.72254219  0.90745835    -0.13000
C1600       C  0.31158167  0.70846612  0.86377517    -0.13000
C1601       C  0.33558869  0.71405260  0.83957808     0.09200
C1602       C  0.35764556  0.72640380  0.86415912    -0.13000
H1603       H  0.36828170  0.75910034  0.91738750     0.13200
H1604       H  0.28755685  0.72290533  0.92165116     0.13200
H1605       H  0.29393454  0.69927419  0.84611996     0.13200
H1606       H  0.37592325  0.73299912  0.84696665     0.13200
C1607       C  0.29404916  0.78753861  0.65749923    -0.13000
C1608       C  0.32065700  0.77941316  0.67094939     0.09200
C1609       C  0.34074514  0.80149097  0.65867475    -0.13000
C1610       C  0.33583256  0.82178451  0.62121831    -0.13000
C1611       C  0.31357514  0.81414610  0.59388975     0.09200
C1612       C  0.29028142  0.80690518  0.61852299    -0.13000
H1613       H  0.27684467  0.77684600  0.67403474     0.13200
H1614       H  0.35969363  0.80293458  0.67730521     0.13200
H1615       H  0.35183468  0.83635807  0.60766427     0.13200
H1616       H  0.27069758  0.80766003  0.60161864     0.13200
C1617       C  0.09301082  0.99721396  0.74959713    -0.16000
C1618       C  0.11060568  0.97329767  0.73588727    -0.31200
H1619       H  0.10917280  0.50986439  0.76650608     0.13000
H1620       H  0.10304501  0.95163051  0.71833727     0.13600
C1621       C  0.08702081  0.02152300  0.49011354    -0.16000
C1622       C  0.10636725  0.00681783  0.51526658    -0.31200
H1623       H  0.09138274  0.04199667  0.96969496     0.13000
H1624       H  0.09784765  0.55230652  0.50996333     0.13600
C1625       C  0.44200907  0.71116092  0.74803487    -0.16000
C1626       C  0.42517732  0.73008971  0.72283565    -0.31200
H1627       H  0.43463607  0.68964205  0.76492726     0.13000
H1628       H  0.43316916  0.74993276  0.70277098     0.13600
C1629       C  0.42126213  0.75856373  0.54129113    -0.16000
C1630       C  0.43561862  0.73328211  0.52175167    -0.31200
H1631       H  0.43038083  0.78021650  0.05730199     0.13000
H1632       H  0.42497477  0.71254781  0.50740113     0.13600
C1633       C  0.92495935  0.51766930  0.71018743    -0.16000
C1634       C  0.93825206  0.49330530  0.73286021    -0.31200
H1635       H  0.92674233  0.03477816  0.68977445     0.13000
H1636       H  0.92693927  0.47454816  0.74981705     0.13600
C1637       C  0.86142063  0.50341923  0.88833375    -0.13000
C1638       C  0.83031873  0.97872512  0.90643688     0.09200
C1639       C  0.80771620  0.97308307  0.87862178    -0.13000
C1640       C  0.80408359  0.99104477  0.83885265    -0.13000
C1641       C  0.83347815  0.51953999  0.82405497     0.09200
C1642       C  0.85761799  0.52137728  0.84873127    -0.13000
H1643       H  0.87941022  0.50880835  0.90799934     0.13200
H1644       H  0.79029462  0.96116093  0.89241374     0.13200
H1645       H  0.78395365  0.99204999  0.82436411     0.13200
H1646       H  0.87333414  0.53756686  0.83819292     0.13200
C1647       C  0.78979861  0.07491742  0.62695609    -0.13000
C1648       C  0.82381283  0.58397790  0.64955417     0.09200
C1649       C  0.84709755  0.58631387  0.62284411    -0.13000
C1650       C  0.85047723  0.56319722  0.58703946    -0.13000
C1651       C  0.81852600  0.04063731  0.57840567     0.09200
C1652       C  0.79247515  0.05251361  0.59010893    -0.13000
H1653       H  0.77009372  0.07931412  0.64226024     0.13200
H1654       H  0.86430576  0.59942828  0.63603728     0.13200
H1655       H  0.86948870  0.56122529  0.56889124     0.13200
H1656       H  0.77461141  0.04292104  0.57341765     0.13200
C1657       C  0.94408555  0.46368669  0.49800353    -0.16000
C1658       C  0.92806757  0.48135773  0.52709172    -0.31200
H1659       H  0.92748692  0.94233791  0.47896802     0.13000
H1660       H  0.93696936  0.50188351  0.05286256     0.13600
C1661       C  0.80939339  0.71736005  0.80082145    -0.13000
C1662       C  0.78160987  0.72048529  0.80910257     0.09200
C1663       C  0.76719039  0.69235774  0.81913188    -0.13000
C1664       C  0.77981732  0.66147106  0.81760677    -0.13000
C1665       C  0.80714782  0.65803241  0.80624172     0.09200
C1666       C  0.82207224  0.68632102  0.79937452    -0.13000
H1667       H  0.82067740  0.73854402  0.79143863     0.13200
H1668       H  0.74554562  0.69410293  0.82377829     0.13200
H1669       H  0.76771840  0.63999202  0.82081224     0.13200
H1670       H  0.84298624  0.68408485  0.78889021     0.13200
C1671       C  0.72018971  0.92614580  0.68481421    -0.13000
C1672       C  0.73397005  0.89613600  0.69069219     0.09200
C1673       C  0.76217904  0.89502450  0.68896589    -0.13000
C1674       C  0.77646642  0.92382058  0.68581678    -0.13000
C1675       C  0.76279136  0.95423195  0.68421410     0.09200
C1676       C  0.73456009  0.95507378  0.68101970    -0.13000
H1677       H  0.69841008  0.92742587  0.68707324     0.13200
H1678       H  0.77308355  0.87217063  0.69428120     0.13200
H1679       H  0.79824595  0.92272161  0.68869796     0.13200
H1680       H  0.72367745  0.97828711  0.68075019     0.13200
C1681       C  0.61300508  0.76999012  0.79015945    -0.16000
C1682       C  0.60112588  0.74388147  0.77002736    -0.31200
H1683       H  0.60065669  0.78857890  0.80787600     0.13000
H1684       H  0.61382606  0.72419094  0.75589504     0.13600
C1685       C  0.74449690  0.61060420  0.47389868    -0.13000
C1686       C  0.75375035  0.64159687  0.46250940     0.09200
C1687       C  0.79467596  0.67048127  0.94413638    -0.13000
C1688       C  0.80893680  0.64115781  0.95197527    -0.13000
C1689       C  0.78430359  0.58470362  0.43740414     0.09200
C1690       C  0.75959977  0.58232279  0.46108163    -0.13000
H1691       H  0.72622856  0.60839202  0.49400330     0.13200
H1692       H  0.80369097  0.69325093  0.95480646     0.13200
H1693       H  0.82904486  0.64180151  0.96680505     0.13200
H1694       H  0.75349600  0.55889578  0.47376436     0.13200
C1695       C  0.78204370  0.84908469  0.57165485    -0.13000
C1696       C  0.75406178  0.84497686  0.57165543     0.09200
C1697       C  0.73947708  0.87246365  0.08310449    -0.13000
C1698       C  0.75225836  0.90111371  0.07133906    -0.13000
C1699       C  0.77546614  0.90829986  0.57235802     0.09200
C1700       C  0.79266691  0.88049331  0.57225675    -0.13000
H1701       H  0.79548292  0.82809547  0.56687614     0.13200
H1702       H  0.72081661  0.87417563  0.10256637     0.13200
H1703       H  0.74370395  0.92415920  0.08387175     0.13200
H1704       H  0.81414018  0.88317928  0.56750331     0.13200
C1705       C  0.68532134  0.81629256  0.91420078    -0.13000
C1706       C  0.70756546  0.79582321  0.92549768     0.09200
C1707       C  0.73321094  0.80780795  0.91483831    -0.13000
C1708       C  0.73520160  0.83046677  0.87939516    -0.13000
C1709       C  0.71197058  0.83554351  0.85262631     0.09200
C1710       C  0.68842811  0.83888029  0.87888248    -0.13000
H1711       H  0.66615853  0.81478444  0.93164017     0.13200
H1712       H  0.75135467  0.79864647  0.93182380     0.13200
H1713       H  0.75487212  0.83585426  0.86565451     0.13200
H1714       H  0.67107892  0.85234347  0.86557937     0.13200
C1715       C  0.67667240  0.75656235  0.61379661    -0.13000
C1716       C  0.69464743  0.73154559  0.59767914     0.09200
C1717       C  0.71122192  0.71565363  0.62988046    -0.13000
C1718       C  0.71346303  0.72912775  0.67452635    -0.13000
C1719       C  0.70250096  0.76067527  0.68375966     0.09200
C1720       C  0.68210901  0.77257418  0.65480161    -0.13000
H1721       H  0.66277553  0.76939941  0.59101400     0.13200
H1722       H  0.72382888  0.69484590  0.61981766     0.13200
H1723       H  0.72367942  0.71486155  0.70055894     0.13200
H1724       H  0.67086640  0.79488482  0.66334487     0.13200
C1725       C  0.59772562  0.72090217  0.49513108    -0.16000
C1726       C  0.61261043  0.74296082  0.47276964    -0.31200
H1727       H  0.60774703  0.69995950  0.51092187     0.13000
H1728       H  0.60019792  0.75490772  0.95785926     0.13600
loop_ 
_geom_bond_atom_site_label_1 
_geom_bond_atom_site_label_2 
_geom_bond_distance 
_geom_bond_site_symmetry_2 
_ccdc_geom_bond_type 
C1            C3   1.498       .  S
C1            C5   1.570       .  S
C1            C4   1.560       .  S
C1          C410   1.492       .  S
C2            C6   1.554       .  S
C2            C8   1.511       .  S
C2            C7   1.563       .  S
C2          C420   1.500       .  S
C3           C11   1.373       .  A
C3          C438   1.362       .  A
C4           C15   1.398       .  A
C4          C439   1.381       .  A
C5           C19   1.384       .  A
C5          C440   1.398       .  A
C6            C9   1.411       .  A
C6          C435   1.379       .  A
C7           C13   1.379       .  A
C7          C436   1.381   1_554  A
C8           C16   1.371   1_554  A
C8          C437   1.406   1_554  A
C9           N10   1.364       .  A
C9           H22   1.074       .  S
N10         C443   1.332       .  A
N10         C400   1.437       .  S
C11         N442   1.347       .  A
C11          H12   1.083       .  S
C13         N446   1.357   1_554  A
C13          H23   1.080       .  S
N14          C15   1.364       .  A
N14         C445   1.348       .  A
N14         C862   1.442       .  S
C15          H21   1.080       .  S
C16          N17   1.332       .  A
C16          H18   1.080   1_556  S
N17         C451   1.359       .  A
N17         C390   1.436       .  S
C19         N449   1.351       .  A
C19          H20   1.065       .  S
C24          C26   1.554       .  S
C24          C28   1.531       .  S
C24          C27   1.547       .  S
C24         C423   1.494       .  S
C25          C29   1.500       .  S
C25          C31   1.559       .  S
C25          C30   1.533       .  S
C25         C413   1.468       .  S
C26          C34   1.394       .  A
C26          C29   1.362       .  A
C27          C38   1.381       .  A
C27          C30   1.381       .  A
C28          C42   1.378       .  A
C28          C31   1.405       .  A
C29          C32   1.370       .  A
C30          C36   1.381       .  A
C31          C39   1.387       .  A
C32          N33   1.337       .  A
C32          H45   1.083       .  S
N33          C34   1.357       .  A
N33         C376   1.430       .  S
C34          H35   1.064       .  S
C36          N37   1.353       .  A
C36          H46   1.080       .  S
N37          C38   1.358       .  A
N37         C385   1.441       .  S
C38          H44   1.080       .  S
C39          N40   1.354       .  A
C39          H41   1.072       .  S
N40          C42   1.352       .  A
N40         C366   1.435       .  S
C42          H43   1.083       .  S
C47          C49   1.511       .  S
C47          C50   1.565       .  S
C47         C342   1.497       .  S
C47         C915   1.552       .  S
C48          C52   1.573       .  S
C48          C53   1.565       .  S
C48         C355   1.505       .  S
C48         C918   1.509       .  S
C49          C57   1.370       .  A
C49         C484   1.405       .  A
C50         C925   1.384       .  A
C50         C485   1.381       .  A
C51         C911   1.551   1_545  S
C51          C65   1.412       .  A
C51         C486   1.376       .  A
C52          C55   1.387       .  A
C52         C481   1.398   1_554  A
C53         C482   1.380   1_554  A
C53         C923   1.392       .  A
C54         C912   1.504       .  S
C54          C62   1.378   1_554  A
C54         C483   1.366   1_554  A
C55          N56   1.350       .  A
C55          H68   1.066       .  S
N56         C489   1.356   1_554  A
N56         C403   1.448       .  S
C57         N488   1.339       .  A
C57          H58   1.081       .  S
C59         C917   1.397   1_565  A
C59          N60   1.361       .  A
C59          H69   1.078   1_565  S
N60         C493   1.349   1_554  A
N60         C362   1.443       .  S
C61         C914   1.386       .  A
C61         N492   1.357       .  A
C61          H67   1.079       .  S
C62          N63   1.351       .  A
C62          H64   1.083   1_556  S
N63         C497   1.357       .  A
N63         C393   1.439       .  S
C65         N495   1.362       .  A
C65          H66   1.079       .  S
C70          C74   1.501       .  S
C70         C352   1.470       .  S
C70         C936   1.550       .  S
C70         C937   1.539       .  S
C71          C77   1.551       .  S
C71         C345   1.490       .  S
C71         C939   1.533       .  S
C71         C940   1.538       .  S
C72         C934   1.556       .  S
C72          C80   1.387       .  A
C72          C75   1.402       .  A
C73         C934   1.532       .  S
C73          C76   1.390       .  A
C73         C948   1.379       .  A
C74          C88   1.370   1_565  A
C74          C77   1.357       .  A
C75         C935   1.523       .  S
C75          C78   1.373       .  A
C76         C935   1.547       .  S
C76         C946   1.377       .  A
C77          C85   1.390   1_565  A
C78          N79   1.349       .  A
C78          H91   1.083       .  S
N79          C80   1.355       .  A
N79         C379   1.431       .  S
C80          H81   1.077       .  S
C82         C940   1.375       .  A
C82          N83   1.350       .  A
C82          H92   1.082       .  S
N83          C84   1.357       .  A
N83         C337   1.428       .  S
C84         C937   1.382       .  A
C84          H90   1.081       .  S
C85          N86   1.361       .  A
C85          H87   1.061   1_545  S
N86          C88   1.340       .  A
N86         C369   1.433       .  S
C88          H89   1.083       .  S
O93        Ni101   1.907       .  S
O93         C103   1.276       .  A
O94        Ni533   1.930       .  S
O94         C536   1.283       .  A
O95        Ni533   2.052       .  S
O95         C105   1.308       .  A
O96        Ni101   2.050       .  S
O96         C106   1.308       .  A
O97        Ni102   2.052       .  S
O97         C106   1.310       .  A
O98        Ni534   2.058       .  S
O98         C105   1.312       .  A
O99        Ni102   1.927       .  S
O99         C104   1.280       .  A
O100       Ni534   1.918       .  S
O100        C535   1.279       .  A
Ni101       O526   1.919       .  S
Ni101       O527   2.055   1_554  S
Ni101      Ni102   2.362       .  S
Ni102       O530   2.057   1_554  S
Ni102       O532   1.913       .  S
C103        O532   1.280       .  A
C103        C429   1.464   1_554  S
C104        O526   1.281       .  A
C104        C334   1.479       .  S
C105        C120   1.646       .  S
C106        C119   1.640       .  S
O107       Ni115   1.897       .  S
O107        C117   1.273       .  A
O108       Ni115   1.890       .  S
O108        C118   1.275       .  A
O109       Ni115   2.058       .  S
O109        C119   1.312       .  A
O110       Ni115   2.068       .  S
O110        C120   1.315       .  A
O111       Ni116   2.043       .  S
O111        C120   1.305       .  A
O112       Ni116   2.044       .  S
O112        C119   1.306       .  A
O113       Ni116   1.929       .  S
O113        C118   1.282       .  A
O114       Ni116   1.937       .  S
O114        C117   1.285       .  A
Ni115      Ni116   2.363       .  S
C117        C386   1.470       .  S
C118        C329   1.470       .  S
O121       Ni561   1.898       .  S
O121        C563   1.274       .  A
O122       Ni129   1.910   1_655  S
O122        C132   1.278   1_545  A
O123       Ni129   2.052   1_554  S
O123        C133   1.310   1_545  A
O124       Ni561   2.058       .  S
O124        C134   1.312   1_545  A
O125       Ni562   2.064       .  S
O125        C998   1.312       .  A
O126       Ni130   2.044   1_554  S
O126        C997   1.306       .  A
O127       Ni562   1.908   1_655  S
O127       C1428   1.275       .  A
O128       Ni130   1.920       .  S
O128        C995   1.282       .  A
Ni129       O553   1.898       .  S
Ni129       O556   2.061       .  S
Ni129      Ni994   2.363   1_545  S
Ni130       O557   2.047       .  S
Ni130       O559   1.922   1_455  S
Ni130      Ni993   2.365       .  S
C131        O553   1.274       .  A
C131        O992   1.282   1_545  A
C131       C1189   1.464       .  S
C132       O1423   1.282       .  A
C132        C361   1.477   1_556  S
C133        O990   1.307       .  A
C133        C148   1.638       .  S
C134        O989   1.309       .  A
C134        C147   1.647       .  S
O135       Ni143   1.929       .  S
O135        C145   1.282   1_545  A
O136       Ni143   1.916   1_655  S
O136        C146   1.279   1_545  A
O137       Ni143   2.047       .  S
O137        C147   1.307   1_545  A
O138       Ni143   2.045       .  S
O138        C148   1.307   1_545  A
O139       Ni144   2.055       .  S
O139       C1012   1.311       .  A
O140       Ni144   2.068       .  S
O140       C1011   1.313       .  A
O141       Ni144   1.905   1_655  S
O141       C1010   1.277       .  A
O142       Ni144   1.914       .  S
O142       C1009   1.278       .  A
Ni143     Ni1008   2.363   1_545  S
Ni144     Ni1007   2.361       .  S
C145       O1006   1.278       .  A
C145       C1185   1.479       .  S
C146       O1005   1.278       .  A
C146        C338   1.470       .  S
C147       O1004   1.313       .  A
C148       O1003   1.310       .  A
C149        C151   1.509       .  S
C149        C153   1.562       .  S
C149        C152   1.539       .  S
C149        C302   1.489       .  S
C150        C154   1.586       .  S
C150        C156   1.505       .  S
C150        C155   1.571       .  S
C150        C315   1.515       .  S
C151        C159   1.371       .  A
C151        C586   1.383       .  A
C152        C163   1.382       .  A
C152        C587   1.382       .  A
C153        C167   1.402       .  A
C153        C588   1.382       .  A
C154        C157   1.401       .  A
C154        C583   1.384       .  A
C155        C161   1.407       .  A
C155        C584   1.381       .  A
C156        C164   1.367       .  A
C156        C585   1.383   1_554  A
C157        N158   1.359       .  A
C157        H170   1.072       .  S
N158        C591   1.342       .  A
N158        C282   1.435       .  S
C159        N590   1.342       .  A
C159        H160   1.082       .  S
C161        N162   1.361       .  A
C161        H171   1.078       .  S
N162        C595   1.345       .  A
N162        C333   1.449       .  S
C163        N594   1.347       .  A
C163        H169   1.079       .  S
C164        N165   1.345   1_554  A
C164        H166   1.083       .  S
N165        C599   1.360       .  A
N165        C292   1.433       .  S
C167        N597   1.364       .  A
C167        H168   1.078       .  S
C172        C174   1.553       .  S
C172        C176   1.502       .  S
C172        C175   1.537       .  S
C172        C312   1.473       .  S
C173        C177   1.525       .  S
C173        C179   1.548       .  S
C173        C178   1.534       .  S
C173        C305   1.485       .  S
C174        C182   1.389       .  A
C174        C177   1.404       .  A
C175        C186   1.381       .  A
C175        C178   1.389       .  A
C176        C190   1.368       .  A
C176        C179   1.357       .  A
C177        C180   1.373       .  A
C178        C184   1.369       .  A
C179        C187   1.390       .  A
C180        N181   1.343       .  A
C180        H193   1.083       .  S
N181        C182   1.352       .  A
N181        C262   1.429       .  S
C182        H183   1.070       .  S
C184        N185   1.349       .  A
C184        H194   1.082       .  S
N185        C186   1.357       .  A
N185        C330   1.425       .  S
C186        H192   1.082       .  S
C187        N188   1.360       .  A
C187        H189   1.066       .  S
N188        C190   1.341       .  A
N188        C275   1.429       .  S
C190        H191   1.083       .  S
C195        C197   1.511   1_554  S
C195        C198   1.544       .  S
C195        C252   1.481       .  S
C195       C1063   1.544       .  S
C196        C200   1.550       .  S
C196        C201   1.545       .  S
C196        C242   1.490       .  S
C196       C1066   1.524       .  S
C197        C205   1.372       .  A
C197        C632   1.356       .  A
C198        C209   1.378       .  A
C198        C633   1.414   1_554  A
C199       C1059   1.543       .  S
C199        C213   1.394       .  A
C199        C634   1.385   1_554  A
C200        C203   1.394       .  A
C200        C629   1.359       .  A
C201        C207   1.377       .  A
C201        C630   1.402       .  A
C202       C1060   1.530       .  S
C202        C210   1.377       .  A
C202        C631   1.388       .  A
C203        N204   1.365       .  A
C203        H216   1.071       .  S
N204        C637   1.342       .  A
N204        C295   1.438       .  S
C205        N636   1.343       .  A
C205        H206   1.083   1_556  S
C207        N208   1.351       .  A
C207        H217   1.076       .  S
N208        C641   1.356       .  A
N208        C758   1.426       .  S
C209        N640   1.346       .  A
C209        H215   1.080       .  S
C210        N211   1.346       .  A
C210        H212   1.083       .  S
N211        C645   1.355       .  A
N211        C285   1.435       .  S
C213        N643   1.357       .  A
C213        H214   1.071       .  S
C218        C220   1.556       .  S
C218        C221   1.535       .  S
C218        C245   1.480       .  S
C218       C1086   1.504       .  S
C219        C223   1.506       .  S
C219        C224   1.571       .  S
C219        C255   1.512       .  S
C219       C1089   1.572       .  S
C220        C228   1.393       .  A
C220        C223   1.382       .  A
C221        C232   1.382       .  A
C221        C224   1.390       .  A
C222       C1082   1.507       .  S
C222        C236   1.369       .  A
C222        C225   1.377       .  A
C223        C226   1.364       .  A
C224        C230   1.398       .  A
C225       C1083   1.571   1_545  S
C225        C233   1.399       .  A
C226        N227   1.346       .  A
C226        H239   1.083       .  S
N227        C228   1.359       .  A
N227        C272   1.429       .  S
C228        H229   1.075       .  S
C230        N231   1.357       .  A
C230        H240   1.078       .  S
N231        C232   1.350       .  A
N231        C322   1.444       .  S
C232        H238   1.080       .  S
C233        N234   1.355       .  A
C233        H235   1.072       .  S
N234        C236   1.342       .  A
N234        C265   1.431       .  S
C236        H237   1.083       .  S
C241        C246   1.386       .  A
C241       C1106   1.392       .  A
C241        H247   1.077       .  S
C242        C243   1.408       .  A
C242       C1105   1.393       .  A
C243        C244   1.377       .  A
C243        H248   1.083       .  S
C244        C245   1.398       .  A
C244        H249   1.083       .  S
C245       C1110   1.403       .  A
C246       C1109   1.407       .  A
C246        H250   1.075       .  S
C251        C252   1.413       .  A
C251        C256   1.388       .  A
C251        H257   1.078       .  S
C252       C1117   1.411       .  A
C253        C254   1.391       .  A
C253       C1116   1.412       .  A
C253        H258   1.083       .  S
C254       C1119   1.395       .  A
C254        H259   1.083       .  S
C255        C256   1.389       .  A
C255       C1118   1.395       .  A
C256        H260   1.081       .  S
C261        C262   1.399       .  A
C261        C266   1.396       .  A
C261        H267   1.083       .  S
C262        C263   1.404       .  A
C263        C264   1.400       .  A
C263        H268   1.083       .  S
C264        C265   1.401       .  A
C264        H269   1.083       .  S
C265        C266   1.403       .  A
C266        H270   1.083       .  S
C271        C272   1.401       .  A
C271        C276   1.396       .  A
C271        H277   1.083       .  S
C272        C273   1.400       .  A
C273        C274   1.401       .  A
C273        H278   1.083       .  S
C274        C275   1.405       .  A
C274        H279   1.083       .  S
C275        C276   1.403       .  A
C276        H280   1.083       .  S
C281        C282   1.405       .  A
C281        C286   1.401       .  A
C281        H287   1.083       .  S
C282        C715   1.401       .  A
C283        C284   1.402       .  A
C283        C714   1.401       .  A
C283        H288   1.083       .  S
C284        C285   1.405       .  A
C284        H289   1.083       .  S
C285        C718   1.401       .  A
C286        C717   1.402       .  A
C286        H290   1.083       .  S
C291        C292   1.401       .  A
C291        C296   1.395       .  A
C291        H297   1.083       .  S
C292        C725   1.403       .  A
C293        C294   1.407       .  A
C293        C724   1.403       .  A
C293        H298   1.083       .  S
C294        C295   1.408       .  A
C294        H299   1.083       .  S
C295        C728   1.403       .  A
C296        C727   1.402       .  A
C296        H300   1.083       .  S
C301        C302   1.399       .  A
C301        C306   1.368       .  A
C301        H307   1.079       .  S
C302        C303   1.400       .  A
C303        C304   1.381       .  A
C303        H308   1.082       .  S
C304        C305   1.406       .  A
C304        H309   1.080       .  S
C305        C306   1.398       .  A
C306        H310   1.078       .  S
C311        C312   1.408       .  A
C311        C316   1.391       .  A
C311        H317   1.083       .  S
C312        C313   1.411       .  A
C313        C314   1.388       .  A
C313        H318   1.082       .  S
C314        C315   1.390       .  A
C314        H319   1.082       .  S
C315        C316   1.396       .  A
C316        H320   1.083       .  S
C321       C1009   1.483       .  S
C321        C322   1.352       .  D
C321       H1187   1.086       .  S
C322        H324   1.087       .  S
H323       C1185   1.086   1_545  S
C325        C995   1.456       .  S
C325        C326   1.336   1_556  D
C325        H759   1.086       .  S
C326        N640   1.431       .  S
C326       H1192   1.088       .  S
H327        C757   1.087       .  S
H328       C1190   1.088   1_565  S
C329        C330   1.346       .  D
C329        H331   1.086       .  S
C330        H332   1.086       .  S
C333        C334   1.354       .  D
C333        H767   1.086       .  S
C334        H336   1.084       .  S
H335        C765   1.086       .  S
C337        C338   1.343       .  D
C337       H1203   1.086       .  S
C338        H340   1.087       .  S
H339       C1201   1.086       .  S
C341        C346   1.368       .  A
C341       C1206   1.397       .  A
C341        H347   1.082       .  S
C342        C343   1.405       .  A
C342       C1205   1.397       .  A
C343        C344   1.394       .  A
C343        H348   1.078       .  S
C344       C1209   1.409       .  A
C344        H349   1.081       .  S
C345        C346   1.402       .  A
C345       C1208   1.407       .  A
C346        H350   1.075       .  S
C351        C356   1.387       .  A
C351       C1216   1.410       .  A
C351        H357   1.083       .  S
C352        C353   1.410   1_565  A
C352       C1215   1.407       .  A
C353        C354   1.384       .  A
C353        H358   1.081       .  S
C354       C1219   1.389       .  A
C354        H359   1.083       .  S
C355        C356   1.394       .  A
C355       C1218   1.391       .  A
C356        H360   1.083       .  S
C361        C362   1.352       .  D
C361       H1227   1.085   1_554  S
C362        H796   1.087   1_565  S
H363       C1225   1.085   1_556  S
H364        C794   1.088       .  S
C365        C366   1.400       .  A
C365        C370   1.400       .  A
C365        H371   1.083       .  S
C366        C367   1.403       .  A
C367        C368   1.403       .  A
C367        H372   1.083       .  S
C368        C369   1.405       .  A
C368        H373   1.083       .  S
C369        C370   1.405       .  A
C370        H374   1.083       .  S
C375        C376   1.401       .  A
C375        C380   1.395       .  A
C375        H381   1.083       .  S
C376        C377   1.403       .  A
C377        C378   1.402       .  A
C377        H382   1.083       .  S
C378        C379   1.404       .  A
C378        H383   1.083       .  S
C379        C380   1.398       .  A
C380        H384   1.083       .  S
C385        C386   1.339       .  D
C385        H387   1.087       .  S
C386        H388   1.085       .  S
C389        C390   1.409       .  A
C389        C394   1.406       .  A
C389        H395   1.083       .  S
C390        C823   1.403       .  A
C391        C392   1.397       .  A
C391        C822   1.404       .  A
C391        H396   1.083       .  S
C392        C825   1.402       .  A
C392        H397   1.082       .  S
C393        C394   1.404       .  A
C393        C824   1.401       .  A
C394        H398   1.083       .  S
C399        C400   1.409       .  A
C399        C404   1.408       .  A
C399        H405   1.083       .  S
C400        C833   1.401       .  A
C401        C402   1.398       .  A
C401        C832   1.402       .  A
C401        H406   1.083       .  S
C402        C835   1.402       .  A
C402        H407   1.083       .  S
C403        C404   1.406       .  A
C403        C834   1.407       .  A
C404        H408   1.082   1_554  S
C409        C410   1.386       .  A
C409        C414   1.375       .  A
C409        H415   1.082       .  S
C410        C411   1.402       .  A
C411        C412   1.385       .  A
C411        H416   1.083       .  S
C412        C413   1.401       .  A
C412        H417   1.082       .  S
C413        C414   1.411       .  A
C414        H418   1.082       .  S
C419        C420   1.394       .  A
C419        C424   1.372       .  A
C419        H425   1.083       .  S
C420        C421   1.409       .  A
C421        C422   1.391       .  A
C421        H426   1.079       .  S
C422        C423   1.403       .  A
C422        H427   1.082       .  S
C423        C424   1.406       .  A
C424        H428   1.074       .  S
C429        C430   1.342       .  D
C429        H431   1.085   1_556  S
C430        N446   1.436       .  S
C430        H864   1.088       .  S
H432        C862   1.086       .  S
C433        C435   1.523   1_556  S
C433        C437   1.574       .  S
C433        C436   1.510       .  S
C433        C842   1.483       .  S
C434        C438   1.553       .  S
C434        C440   1.523       .  S
C434        C439   1.526       .  S
C434        C852   1.478       .  S
C435        C443   1.366       .  A
C436        C447   1.376       .  A
C437        C451   1.404       .  A
C438        C441   1.389       .  A
C439        C445   1.366       .  A
C440        C448   1.386       .  A
C441        N442   1.356       .  A
C441        H454   1.068       .  S
N442        C832   1.433       .  S
C443        H444   1.083   1_554  S
C445        H455   1.082       .  S
N446        C447   1.353       .  A
C447        H453   1.081       .  S
C448        N449   1.353       .  A
C448        H450   1.082       .  S
N449        C822   1.444       .  S
C451        H452   1.071       .  S
C456        C458   1.554       .  S
C456        C460   1.517       .  S
C456        C459   1.529       .  S
C456        C855   1.487       .  S
C457        C461   1.513       .  S
C457        C463   1.585       .  S
C457        C462   1.578       .  S
C457        C845   1.516       .  S
C458        C466   1.394       .  A
C458        C461   1.380       .  A
C459        C470   1.379       .  A
C459        C462   1.381       .  A
C460        C474   1.377       .  A
C460        C463   1.387       .  A
C461        C464   1.372       .  A
C462        C468   1.406       .  A
C463        C471   1.409       .  A
C464        N465   1.350       .  A
C464        H477   1.083       .  S
N465        C466   1.363       .  A
N465        C808   1.439       .  S
C466        H467   1.071       .  S
C468        N469   1.362       .  A
C468        H478   1.077       .  S
N469        C470   1.349       .  A
N469        C817   1.451       .  S
C470        H476   1.080       .  S
C471        N472   1.355       .  A
C471        H473   1.069       .  S
N472        C474   1.334       .  A
N472        C798   1.439       .  S
C474        H475   1.081       .  S
C479        C481   1.530       .  S
C479       C1347   1.550       .  S
C479        C482   1.520       .  S
C479        C774   1.477       .  S
C480        C484   1.572       .  S
C480       C1350   1.523       .  S
C480        C485   1.515       .  S
C480        C787   1.485       .  S
C481        C489   1.391       .  A
C482       C1357   1.374       .  A
C483       C1343   1.556   1_545  S
C483        C497   1.391       .  A
C484        C487   1.397       .  A
C485       C1355   1.379       .  A
C486       C1344   1.520       .  S
C486        C494   1.367       .  A
C487        N488   1.355       .  A
C487        H500   1.070       .  S
N488        C835   1.432       .  S
C489        H490   1.082       .  S
C491       C1349   1.377       .  A
C491        N492   1.355       .  A
C491        H501   1.081   1_565  S
N492        C794   1.441       .  S
C493       C1346   1.374       .  A
C493        H499   1.081       .  S
C494        N495   1.332       .  A
C494        H496   1.083       .  S
N495        C825   1.434       .  S
C497        H498   1.071       .  S
C502       C1368   1.580       .  S
C502        C506   1.508       .  S
C502       C1369   1.579       .  S
C502        C784   1.518       .  S
C503       C1371   1.517       .  S
C503        C509   1.553       .  S
C503       C1372   1.526       .  S
C503        C777   1.487       .  S
C504       C1366   1.582       .  S
C504        C512   1.408       .  A
C504        C507   1.382       .  A
C505       C1366   1.579       .  S
C505       C1380   1.404       .  A
C505        C508   1.384       .  A
C506        C520   1.367       .  A
C506        C509   1.380       .  A
C507       C1367   1.521       .  S
C507        C510   1.379       .  A
C508       C1367   1.531       .  S
C508       C1378   1.382       .  A
C509        C517   1.393       .  A
C510        N511   1.339       .  A
C510        H523   1.081       .  S
N511        C512   1.358       .  A
N511        C811   1.443       .  S
C512        H513   1.071       .  S
C514       C1372   1.378       .  A
C514        N515   1.348       .  A
C514        H524   1.080   1_545  S
N515        C516   1.361       .  A
N515        C769   1.447       .  S
C516       C1369   1.402       .  A
C516        H522   1.077       .  S
C517        N518   1.362       .  A
C517        H519   1.072       .  S
N518        C520   1.348       .  A
N518        C801   1.434       .  S
C520        H521   1.083       .  S
O525       Ni533   1.919       .  S
O525        C535   1.280       .  A
O527        C537   1.310       .  A
O528       Ni533   2.053       .  S
O528        C538   1.309       .  A
O529       Ni534   2.062       .  S
O529        C538   1.312       .  A
O530        C537   1.311       .  A
O531       Ni534   1.930       .  S
O531        C536   1.281       .  A
Ni533      Ni534   2.361       .  S
C535        C861   1.473       .  S
C536        C766   1.487       .  S
C537        C552   1.647       .  S
C538        C551   1.649       .  S
O539       Ni547   1.925       .  S
O539        C549   1.281       .  A
O540       Ni547   1.902       .  S
O540        C550   1.275       .  A
O541       Ni547   2.055       .  S
O541        C551   1.310       .  A
O542       Ni547   2.054       .  S
O542        C552   1.310       .  A
O543       Ni548   2.059       .  S
O543        C552   1.311       .  A
O544       Ni548   2.059       .  S
O544        C551   1.311       .  A
O545       Ni548   1.919       .  S
O545        C550   1.281       .  A
O546       Ni548   1.934       .  S
O546        C549   1.282       .  A
Ni547      Ni548   2.361       .  S
C549        C818   1.487       .  S
C550        C761   1.463       .  S
O554       Ni561   1.911   1_655  S
O554        C564   1.279   1_545  A
O555       Ni561   2.055       .  S
O555        C565   1.310   1_545  A
O556        C566   1.311   1_545  A
O557       C1430   1.308       .  A
O558       Ni562   2.060       .  S
O558       C1429   1.312       .  A
O559        C996   1.280       .  A
O560       Ni562   1.904       .  S
O560       C1427   1.276       .  A
Ni561     Ni1426   2.363   1_545  S
Ni562     Ni1425   2.364       .  S
C563       O1424   1.281   1_545  A
C563       C1621   1.460       .  S
C564        O991   1.279       .  A
C564        C793   1.472       .  S
C565       O1422   1.308       .  A
C565        C580   1.640       .  S
C566       O1421   1.310       .  A
C566        C579   1.649       .  S
O567       Ni575   1.927       .  S
O567        C577   1.281   1_545  A
O568       Ni575   1.914   1_655  S
O568        C578   1.278   1_545  A
O569       Ni575   2.064       .  S
O569        C579   1.312   1_545  A
O570       Ni575   2.057       .  S
O570        C580   1.311   1_545  A
O571       Ni576   2.046       .  S
O571       C1444   1.307       .  A
O572       Ni576   2.048       .  S
O572       C1443   1.308       .  A
O573       Ni576   1.943   1_655  S
O573       C1442   1.286       .  A
O574       Ni576   1.935       .  S
O574       C1441   1.283       .  A
Ni575     Ni1440   2.360   1_545  S
Ni576     Ni1439   2.361       .  S
C577       O1438   1.283       .  A
C577       C1617   1.493       .  S
C578       O1437   1.284       .  A
C578        C770   1.483       .  S
C579       O1436   1.309       .  A
C580       O1435   1.307       .  A
C581        C583   1.508   1_556  S
C581        C585   1.556       .  S
C581        C584   1.534   1_556  S
C581        C734   1.490       .  S
C582        C586   1.585       .  S
C582        C588   1.504       .  S
C582        C587   1.572       .  S
C582        C747   1.513       .  S
C583        C591   1.370       .  A
C584        C595   1.376       .  A
C585        C599   1.398       .  A
C586        C589   1.402       .  A
C587        C593   1.407       .  A
C588        C596   1.367       .  A
C589        N590   1.357       .  A
C589        H602   1.071       .  S
N590        C714   1.434       .  S
C591        H592   1.082   1_554  S
C593        N594   1.362       .  A
C593        H603   1.078       .  S
N594        C765   1.452       .  S
C595        H601   1.079   1_554  S
C596        N597   1.344       .  A
C596        H598   1.083       .  S
N597        C724   1.437       .  S
C599        H600   1.078       .  S
C604        C606   1.554       .  S
C604        C608   1.502       .  S
C604        C607   1.539       .  S
C604        C744   1.472       .  S
C605        C609   1.527       .  S
C605        C611   1.546       .  S
C605        C610   1.534       .  S
C605        C737   1.485       .  S
C606        C614   1.390       .  A
C606        C609   1.404       .  A
C607        C618   1.382       .  A
C607        C610   1.386       .  A
C608        C622   1.368       .  A
C608        C611   1.356       .  A
C609        C612   1.373       .  A
C610        C616   1.368       .  A
C611        C619   1.390       .  A
C612        N613   1.345       .  A
C612        H625   1.083       .  S
N613        C614   1.355       .  A
N613        C694   1.434       .  S
C614        H615   1.073       .  S
C616        N617   1.355       .  A
C616        H626   1.080       .  S
N617        C618   1.358       .  A
N617        C762   1.436       .  S
C618        H624   1.081       .  S
C619        N620   1.360       .  A
C619        H621   1.066       .  S
N620        C622   1.340       .  A
N620        C707   1.429       .  S
C622        H623   1.083       .  S
C627        C629   1.510       .  S
C627       C1495   1.544       .  S
C627        C630   1.538       .  S
C627        C684   1.479       .  S
C628        C632   1.541       .  S
C628       C1498   1.530       .  S
C628        C633   1.544       .  S
C628        C674   1.492       .  S
C629        C637   1.372       .  A
C630        C641   1.374       .  A
C631       C1491   1.540       .  S
C631        C645   1.392       .  A
C632        C635   1.391       .  A
C633        C639   1.379       .  A
C634       C1492   1.526       .  S
C634        C642   1.375   1_556  A
C635        N636   1.361       .  A
C635        H648   1.071       .  S
N636        C727   1.433       .  S
C637        H638   1.083       .  S
C639        N640   1.352   1_556  A
C639        H649   1.077       .  S
C641        H647   1.082       .  S
C642        N643   1.346       .  A
C642        H644   1.083   1_554  S
N643        C717   1.437       .  S
C645        H646   1.070       .  S
C650        C652   1.555       .  S
C650       C1518   1.509       .  S
C650        C653   1.534       .  S
C650        C677   1.482       .  S
C651        C655   1.512       .  S
C651       C1521   1.576       .  S
C651        C656   1.568       .  S
C651        C687   1.513       .  S
C652        C660   1.390       .  A
C652        C655   1.383       .  A
C653        C664   1.383       .  A
C653        C656   1.391       .  A
C654       C1514   1.511       .  S
C654        C668   1.373       .  A
C654        C657   1.377       .  A
C655        C658   1.369       .  A
C656        C662   1.395       .  A
C657       C1515   1.572   1_545  S
C657        C665   1.401       .  A
C658        N659   1.350       .  A
C658        H671   1.083       .  S
N659        C660   1.357       .  A
N659        C704   1.430       .  S
C660        H661   1.075       .  S
C662        N663   1.353       .  A
C662        H672   1.076       .  S
N663        C664   1.353       .  A
N663        C754   1.443       .  S
C664        H670   1.080       .  S
C665        N666   1.355       .  A
C665        H667   1.072       .  S
N666        C668   1.341       .  A
N666        C697   1.433       .  S
C668        H669   1.083       .  S
C673       C1538   1.392       .  A
C673        C678   1.385       .  A
C673        H679   1.078       .  S
C674       C1537   1.392       .  A
C674        C675   1.406       .  A
C675        C676   1.375       .  A
C675        H680   1.083       .  S
C676        C677   1.402       .  A
C676        H681   1.083       .  S
C677       C1542   1.405       .  A
C678       C1541   1.406       .  A
C678        H682   1.076       .  S
C683        C684   1.408       .  A
C683        C688   1.389       .  A
C683        H689   1.080       .  S
C684       C1549   1.416       .  A
C685       C1548   1.412       .  A
C685        C686   1.391       .  A
C685        H690   1.083       .  S
C686       C1551   1.395       .  A
C686        H691   1.083       .  S
C687       C1550   1.393       .  A
C687        C688   1.393       .  A
C688        H692   1.079       .  S
C693        C694   1.401       .  A
C693        C698   1.398       .  A
C693        H699   1.083       .  S
C694        C695   1.406       .  A
C695        C696   1.401       .  A
C695        H700   1.083       .  S
C696        C697   1.401       .  A
C696        H701   1.083       .  S
C697        C698   1.403       .  A
C698        H702   1.083       .  S
C703        C704   1.401       .  A
C703        C708   1.396       .  A
C703        H709   1.083       .  S
C704        C705   1.400       .  A
C705        C706   1.401       .  A
C705        H710   1.082       .  S
C706        C707   1.405       .  A
C706        H711   1.083       .  S
C707        C708   1.404       .  A
C708        H712   1.083       .  S
C713        C714   1.404       .  A
C713        C718   1.398       .  A
C713        H719   1.083       .  S
C715        C716   1.401       .  A
C715        H720   1.083       .  S
C716        C717   1.406       .  A
C716        H721   1.083       .  S
C718        H722   1.083       .  S
C723        C724   1.403       .  A
C723        C728   1.399       .  A
C723        H729   1.083       .  S
C725        C726   1.405       .  A
C725        H730   1.083       .  S
C726        C727   1.407       .  A
C726        H731   1.083       .  S
C728        H732   1.083       .  S
C733        C734   1.399       .  A
C733        C738   1.367       .  A
C733        H739   1.079       .  S
C734        C735   1.400       .  A
C735        C736   1.382       .  A
C735        H740   1.081       .  S
C736        C737   1.407       .  A
C736        H741   1.081       .  S
C737        C738   1.398       .  A
C738        H742   1.077       .  S
C743        C744   1.407       .  A
C743        C748   1.391       .  A
C743        H749   1.083       .  S
C744        C745   1.412       .  A
C745        C746   1.387       .  A
C745        H750   1.081       .  S
C746        C747   1.389       .  A
C746        H751   1.082       .  S
C747        C748   1.397       .  A
C748        H752   1.083       .  S
C753       C1441   1.479       .  S
C753        C754   1.343       .  D
C753       H1619   1.086       .  S
C754        H756   1.086       .  S
H755       C1617   1.086   1_545  S
C757       C1427   1.463       .  S
C757        C758   1.337       .  D
C758       H1624   1.086       .  S
H760       C1622   1.088   1_565  S
C761        C762   1.342       .  D
C761        H763   1.085       .  S
C762        H764   1.087       .  S
C765        C766   1.356       .  D
C766        H768   1.085       .  S
C769        C770   1.354   1_545  D
C769       H1635   1.086       .  S
C770        H772   1.085       .  S
H771       C1633   1.087       .  S
C773       C1638   1.411       .  A
C773        C778   1.370   1_565  A
C773        H779   1.077   1_565  S
C774       C1637   1.411       .  A
C774        C775   1.396       .  A
C775        C776   1.376       .  A
C775        H780   1.082       .  S
C776       C1641   1.406       .  A
C776        H781   1.080       .  S
C777       C1640   1.408   1_545  A
C777        C778   1.388       .  A
C778        H782   1.083       .  S
C783       C1648   1.395       .  A
C783        C788   1.391       .  A
C783        H789   1.083       .  S
C784       C1647   1.395       .  A
C784        C785   1.394       .  A
C785        C786   1.392       .  A
C785        H790   1.082       .  S
C786       C1651   1.409       .  A
C786        H791   1.080       .  S
C787       C1650   1.409       .  A
C787        C788   1.409       .  A
C788        H792   1.083       .  S
C793        C794   1.347       .  D
C793       H1659   1.084       .  S
H795       C1657   1.084       .  S
C797        C798   1.403       .  A
C797        C802   1.406       .  A
C797        H803   1.082       .  S
C798        C799   1.406       .  A
C799        C800   1.396       .  A
C799        H804   1.083       .  S
C800        C801   1.400       .  A
C800        H805   1.083       .  S
C801        C802   1.406       .  A
C802        H806   1.082       .  S
C807        C808   1.407       .  A
C807        C812   1.409       .  A
C807        H813   1.082       .  S
C808        C809   1.401       .  A
C809        C810   1.398       .  A
C809        H814   1.083       .  S
C810        C811   1.406       .  A
C810        H815   1.083       .  S
C811        C812   1.405       .  A
C812        H816   1.082       .  S
C817        C818   1.353       .  D
C817        H819   1.086       .  S
C818        H820   1.085       .  S
C821        C822   1.405       .  A
C821        C826   1.406       .  A
C821        H827   1.082       .  S
C823        C824   1.400       .  A
C823        H828   1.083       .  S
C824        H829   1.083       .  S
C825        C826   1.407       .  A
C826        H830   1.083       .  S
C831        C832   1.401       .  A
C831        C836   1.402       .  A
C831        H837   1.083       .  S
C833        C834   1.397       .  A
C833        H838   1.083       .  S
C834        H839   1.082       .  S
C835        C836   1.406       .  A
C836        H840   1.083       .  S
C841        C842   1.408       .  A
C841        C846   1.392       .  A
C841        H847   1.080       .  S
C842        C843   1.411       .  A
C843        C844   1.390       .  A
C843        H848   1.084       .  S
C844        C845   1.394       .  A
C844        H849   1.083       .  S
C845        C846   1.395       .  A
C846        H850   1.082       .  S
C851        C852   1.410       .  A
C851        C856   1.368       .  A
C851        H857   1.076       .  S
C852        C853   1.395       .  A
C853        C854   1.378       .  A
C853        H858   1.083       .  S
C854        C855   1.410       .  A
C854        H859   1.079       .  S
C855        C856   1.388       .  A
C856        H860   1.084       .  S
C861        C862   1.351       .  D
C861        H863   1.086       .  S
C865        C867   1.501       .  S
C865        C869   1.562       .  S
C865        C868   1.559       .  S
C865       C1274   1.492       .  S
C866        C870   1.555       .  S
C866        C872   1.505       .  S
C866        C871   1.560       .  S
C866       C1284   1.503       .  S
C867        C875   1.372       .  A
C867       C1302   1.365       .  A
C868        C879   1.403       .  A
C868       C1303   1.375       .  A
C869        C883   1.373       .  A
C869       C1304   1.397       .  A
C870       C1299   1.381       .  A
C870        C873   1.410       .  A
C871       C1300   1.387   1_554  A
C871        C877   1.380       .  A
C872       C1301   1.400   1_554  A
C872        C880   1.367   1_554  A
C873        N874   1.361       .  A
C873        H886   1.075       .  S
N874       C1307   1.331       .  A
N874       C1264   1.432       .  S
C875       N1306   1.349       .  A
C875        H876   1.083       .  S
C877       N1310   1.356   1_554  A
C877        H887   1.079       .  S
N878       C1309   1.346       .  A
N878        C879   1.365       .  A
N878       C1726   1.444       .  S
C879        H885   1.080       .  S
C880        N881   1.334       .  A
C880        H882   1.080   1_556  S
N881       C1315   1.360       .  A
N881       C1254   1.433       .  S
C883       N1313   1.350       .  A
C883        H884   1.070       .  S
C888        C890   1.554       .  S
C888        C892   1.542       .  S
C888        C891   1.541       .  S
C888       C1287   1.496       .  S
C889        C893   1.496       .  S
C889        C895   1.549       .  S
C889        C894   1.537       .  S
C889       C1277   1.466       .  S
C890        C898   1.389       .  A
C890        C893   1.357       .  A
C891        C902   1.379       .  A
C891        C894   1.380       .  A
C892        C906   1.379       .  A
C892        C895   1.400       .  A
C893        C896   1.370       .  A
C894        C900   1.382       .  A
C895        C903   1.381       .  A
C896        N897   1.341       .  A
C896        H909   1.083       .  S
N897        C898   1.361       .  A
N897       C1240   1.434       .  S
C898        H899   1.061       .  S
C900        N901   1.355       .  A
C900        H910   1.081       .  S
N901        C902   1.357       .  A
N901       C1249   1.440       .  S
C902        H908   1.080       .  S
C903        N904   1.358       .  A
C903        H905   1.078       .  S
N904        C906   1.360       .  A
N904       C1230   1.438       .  S
C906        H907   1.082       .  S
C911        C913   1.515       .  S
C911        C914   1.565       .  S
C911       C1206   1.494       .  S
C912        C916   1.572   1_545  S
C912        C917   1.568       .  S
C912       C1219   1.504       .  S
C913        C921   1.371       .  A
C913       C1348   1.408       .  A
C914       C1349   1.378       .  A
C915        C929   1.412       .  A
C915       C1350   1.380       .  A
C916       C1345   1.397   1_554  A
C916        C919   1.383       .  A
C917       C1346   1.378   1_544  A
C918       C1347   1.365   1_554  A
C918        C926   1.381       .  A
C919        N920   1.350       .  A
C919        H932   1.065       .  S
N920       C1353   1.355   1_554  A
N920       C1267   1.445       .  S
C921       N1352   1.337       .  A
C921        H922   1.081       .  S
C923        N924   1.356       .  A
C923        H933   1.077       .  S
N924       C1357   1.349   1_554  A
N924       C1226   1.436       .  S
C925       N1356   1.356       .  A
C925        H931   1.079       .  S
C926        N927   1.355   1_554  A
C926        H928   1.082       .  S
N927       C1361   1.353       .  A
N927       C1257   1.437       .  S
C929       N1359   1.360       .  A
C929        H930   1.078       .  S
C934        C938   1.505       .  S
C934       C1216   1.475       .  S
C935        C941   1.549       .  S
C935       C1209   1.494       .  S
C936        C944   1.386       .  A
C936        C939   1.398       .  A
C937        C940   1.387       .  A
C938        C952   1.371       .  A
C938        C941   1.357       .  A
C939        C942   1.375       .  A
C941        C949   1.390       .  A
C942        N943   1.353       .  A
C942        H955   1.082       .  S
N943        C944   1.357       .  A
N943       C1243   1.434       .  S
C944        H945   1.076       .  S
C946        N947   1.352       .  A
C946        H956   1.082       .  S
N947        C948   1.357       .  A
N947       C1201   1.431       .  S
C948        H954   1.081       .  S
C949        N950   1.362       .  A
C949        H951   1.064       .  S
N950        C952   1.339       .  A
N950       C1233   1.433       .  S
C952        H953   1.083       .  S
O957       Ni965   1.906       .  S
O957        C967   1.276       .  A
O958      Ni1397   1.931       .  S
O958       C1400   1.283       .  A
O959      Ni1397   2.050       .  S
O959        C969   1.308       .  A
O960       Ni965   2.053       .  S
O960        C970   1.309       .  A
O961       Ni966   2.052       .  S
O961        C970   1.309       .  A
O962      Ni1398   2.055       .  S
O962        C969   1.311       .  A
O963       Ni966   1.939       .  S
O963        C968   1.283       .  A
O964      Ni1398   1.922       .  S
O964       C1399   1.280       .  A
Ni965      O1390   1.922       .  S
Ni965      O1391   2.056   1_554  S
Ni965      Ni966   2.361       .  S
Ni966      O1394   2.057   1_554  S
Ni966      O1396   1.920       .  S
C967       O1396   1.281       .  A
C967       C1293   1.468   1_554  S
C968       O1390   1.281       .  A
C968       C1198   1.488       .  S
C969        C984   1.643       .  S
C970        C983   1.642       .  S
O971       Ni979   1.900       .  S
O971        C981   1.273       .  A
O972       Ni979   1.887       .  S
O972        C982   1.275       .  A
O973       Ni979   2.055       .  S
O973        C983   1.310       .  A
O974       Ni979   2.063       .  S
O974        C984   1.313       .  A
O975       Ni980   2.043       .  S
O975        C984   1.306       .  A
O976       Ni980   2.050       .  S
O976        C983   1.309       .  A
O977       Ni980   1.918       .  S
O977        C982   1.279       .  A
O978       Ni980   1.932       .  S
O978        C981   1.284       .  A
Ni979      Ni980   2.365       .  S
C981       C1250   1.469       .  S
C982       C1193   1.457       .  S
O985      Ni1425   1.911       .  S
O985       C1427   1.280       .  A
O986       Ni993   1.900   1_655  S
O986        C996   1.277       .  A
O987       Ni993   2.059   1_554  S
O987        C997   1.312       .  A
O988      Ni1425   2.057       .  S
O988        C998   1.310       .  A
O989      Ni1426   2.055       .  S
O990       Ni994   2.047   1_554  S
O991      Ni1426   1.922   1_655  S
O992       Ni994   1.924       .  S
Ni993      O1417   1.893       .  S
Ni993      O1420   2.061       .  S
Ni994      O1421   2.055       .  S
Ni994      O1423   1.931   1_455  S
C995       O1417   1.272       .  A
C996       C1225   1.467   1_556  S
C997       C1012   1.640       .  S
C998       C1011   1.653       .  S
O999      Ni1007   1.934       .  S
O999       C1009   1.284       .  A
O1000     Ni1007   1.921   1_655  S
O1000      C1010   1.281       .  A
O1001     Ni1007   2.053       .  S
O1001      C1011   1.309       .  A
O1002     Ni1007   2.048       .  S
O1002      C1012   1.307       .  A
O1003     Ni1008   2.054       .  S
O1004     Ni1008   2.066       .  S
O1005     Ni1008   1.907   1_655  S
O1006     Ni1008   1.915       .  S
C1010      C1202   1.472       .  S
C1013      C1015   1.507       .  S
C1013      C1017   1.562       .  S
C1013      C1016   1.543       .  S
C1013      C1166   1.491       .  S
C1014      C1018   1.594       .  S
C1014      C1020   1.508       .  S
C1014      C1019   1.569       .  S
C1014      C1179   1.514       .  S
C1015      C1023   1.371       .  A
C1015      C1450   1.383       .  A
C1016      C1027   1.385       .  A
C1016      C1451   1.380       .  A
C1017      C1031   1.404       .  A
C1017      C1452   1.385       .  A
C1018      C1447   1.384       .  A
C1018      C1021   1.409       .  A
C1019      C1448   1.378       .  A
C1019      C1025   1.407       .  A
C1020      C1449   1.385   1_554  A
C1020      C1028   1.367       .  A
C1021      N1022   1.362       .  A
C1021      H1034   1.073       .  S
N1022      C1455   1.339       .  A
N1022      C1146   1.437       .  S
C1023      N1454   1.342       .  A
C1023      H1024   1.082       .  S
C1025      N1026   1.362       .  A
C1025      H1035   1.078       .  S
N1026      C1459   1.349       .  A
N1026      C1197   1.454       .  S
C1027      N1458   1.348       .  A
C1027      H1033   1.079       .  S
C1028      N1029   1.342   1_554  A
C1028      H1030   1.083       .  S
N1029      C1463   1.361       .  A
N1029      C1156   1.434       .  S
C1031      N1461   1.364       .  A
C1031      H1032   1.078       .  S
C1036      C1038   1.551       .  S
C1036      C1040   1.502       .  S
C1036      C1039   1.531       .  S
C1036      C1176   1.468       .  S
C1037      C1041   1.525       .  S
C1037      C1043   1.543       .  S
C1037      C1042   1.535       .  S
C1037      C1169   1.486       .  S
C1038      C1046   1.391       .  A
C1038      C1041   1.405       .  A
C1039      C1050   1.378       .  A
C1039      C1042   1.389       .  A
C1040      C1054   1.368       .  A
C1040      C1043   1.356       .  A
C1041      C1044   1.372       .  A
C1042      C1048   1.368       .  A
C1043      C1051   1.387       .  A
C1044      N1045   1.343       .  A
C1044      H1057   1.083       .  S
N1045      C1046   1.353       .  A
N1045      C1126   1.429       .  S
C1046      H1047   1.073       .  S
C1048      N1049   1.350       .  A
C1048      H1058   1.082       .  S
N1049      C1050   1.353       .  A
N1049      C1194   1.420       .  S
C1050      H1056   1.081       .  S
C1051      N1052   1.359       .  A
C1051      H1053   1.065       .  S
N1052      C1054   1.342       .  A
N1052      C1139   1.429       .  S
C1054      H1055   1.083       .  S
C1059      C1061   1.512   1_545  S
C1059      C1062   1.548       .  S
C1059      C1116   1.485   1_545  S
C1060      C1064   1.545       .  S
C1060      C1065   1.548       .  S
C1060      C1106   1.492       .  S
C1061      C1069   1.372   1_554  A
C1061      C1496   1.359   1_564  A
C1062      C1073   1.378       .  A
C1062      C1497   1.416   1_554  A
C1063      C1077   1.396       .  A
C1063      C1498   1.393   1_554  A
C1064      C1493   1.356   1_545  A
C1064      C1067   1.392   1_545  A
C1065      C1494   1.415       .  A
C1065      C1071   1.383       .  A
C1066      C1495   1.393       .  A
C1066      C1074   1.372       .  A
C1067      N1068   1.364       .  A
C1067      H1080   1.071       .  S
N1068      C1501   1.343       .  A
N1068      C1159   1.438       .  S
C1069      N1500   1.343       .  A
C1069      H1070   1.083   1_556  S
C1071      N1072   1.353       .  A
C1071      H1081   1.078       .  S
N1072      C1505   1.345       .  A
N1072      C1622   1.431       .  S
C1073      N1504   1.347       .  A
C1073      H1079   1.080   1_545  S
C1074      N1075   1.343       .  A
C1074      H1076   1.083       .  S
N1075      C1509   1.355       .  A
N1075      C1149   1.433       .  S
C1077      N1507   1.355       .  A
C1077      H1078   1.072       .  S
C1082      C1084   1.559   1_545  S
C1082      C1085   1.536   1_545  S
C1082      C1109   1.488       .  S
C1083      C1087   1.506       .  S
C1083      C1088   1.567       .  S
C1083      C1119   1.515       .  S
C1084      C1092   1.393       .  A
C1084      C1087   1.384       .  A
C1085      C1096   1.382       .  A
C1085      C1088   1.393       .  A
C1086      C1100   1.368       .  A
C1086      C1089   1.376       .  A
C1087      C1090   1.365       .  A
C1088      C1094   1.394       .  A
C1089      C1097   1.401       .  A
C1090      N1091   1.346       .  A
C1090      H1103   1.083       .  S
N1091      C1092   1.359       .  A
N1091      C1136   1.429       .  S
C1092      H1093   1.075       .  S
C1094      N1095   1.354       .  A
C1094      H1104   1.078       .  S
N1095      C1096   1.350       .  A
N1095      C1186   1.441       .  S
C1096      H1102   1.080   1_565  S
C1097      N1098   1.356       .  A
C1097      H1099   1.072       .  S
N1098      C1100   1.341       .  A
N1098      C1129   1.431       .  S
C1100      H1101   1.083       .  S
C1105      C1110   1.381       .  A
C1105      H1111   1.072       .  S
C1106      C1107   1.407       .  A
C1107      C1108   1.377       .  A
C1107      H1112   1.083       .  S
C1108      C1109   1.400       .  A
C1108      H1113   1.083       .  S
C1110      H1114   1.077       .  S
C1115      C1116   1.412       .  A
C1115      C1120   1.389       .  A
C1115      H1121   1.078       .  S
C1117      C1118   1.391       .  A
C1117      H1122   1.083       .  S
C1118      H1123   1.083       .  S
C1119      C1120   1.390       .  A
C1120      H1124   1.081       .  S
C1125      C1126   1.399       .  A
C1125      C1130   1.395       .  A
C1125      H1131   1.083       .  S
C1126      C1127   1.405       .  A
C1127      C1128   1.401       .  A
C1127      H1132   1.083       .  S
C1128      C1129   1.401       .  A
C1128      H1133   1.083       .  S
C1129      C1130   1.403       .  A
C1130      H1134   1.083       .  S
C1135      C1136   1.402       .  A
C1135      C1140   1.396       .  A
C1135      H1141   1.083       .  S
C1136      C1137   1.400       .  A
C1137      C1138   1.400       .  A
C1137      H1142   1.083       .  S
C1138      C1139   1.404       .  A
C1138      H1143   1.083       .  S
C1139      C1140   1.403       .  A
C1140      H1144   1.083       .  S
C1145      C1146   1.406       .  A
C1145      C1150   1.400       .  A
C1145      H1151   1.083       .  S
C1146      C1579   1.403       .  A
C1147      C1578   1.401       .  A
C1147      C1148   1.400       .  A
C1147      H1152   1.083       .  S
C1148      C1149   1.405       .  A
C1148      H1153   1.083       .  S
C1149      C1582   1.401       .  A
C1150      C1581   1.400       .  A
C1150      H1154   1.083       .  S
C1155      C1156   1.402       .  A
C1155      C1160   1.398       .  A
C1155      H1161   1.083       .  S
C1156      C1589   1.402       .  A
C1157      C1588   1.404       .  A
C1157      C1158   1.408       .  A
C1157      H1162   1.083       .  S
C1158      C1159   1.408       .  A
C1158      H1163   1.083       .  S
C1159      C1592   1.403       .  A
C1160      C1591   1.403       .  A
C1160      H1164   1.083       .  S
C1165      C1166   1.399       .  A
C1165      C1170   1.367       .  A
C1165      H1171   1.079       .  S
C1166      C1167   1.401       .  A
C1167      C1168   1.383       .  A
C1167      H1172   1.081       .  S
C1168      C1169   1.407       .  A
C1168      H1173   1.081       .  S
C1169      C1170   1.397       .  A
C1170      H1174   1.076       .  S
C1175      C1176   1.408       .  A
C1175      C1180   1.388       .  A
C1175      H1181   1.083       .  S
C1176      C1177   1.409       .  A
C1177      C1178   1.388       .  A
C1177      H1182   1.081       .  S
C1178      C1179   1.392       .  A
C1178      H1183   1.082       .  S
C1179      C1180   1.395       .  A
C1180      H1184   1.083       .  S
C1185      C1186   1.348       .  D
C1186      H1188   1.087       .  S
C1189      C1190   1.337   1_556  D
C1189      H1623   1.086       .  S
C1190      N1504   1.435       .  S
H1191      C1621   1.086       .  S
C1193      C1194   1.342       .  D
C1193      H1195   1.086       .  S
C1194      H1196   1.087       .  S
C1197      C1198   1.355       .  D
C1197      H1631   1.086       .  S
C1198      H1200   1.084       .  S
H1199      C1629   1.086       .  S
C1201      C1202   1.345       .  D
C1202      H1204   1.087       .  S
C1205      C1210   1.368       .  A
C1205      H1211   1.083       .  S
C1206      C1207   1.404       .  A
C1207      C1208   1.390       .  A
C1207      H1212   1.079       .  S
C1208      H1213   1.081       .  S
C1209      C1210   1.401       .  A
C1210      H1214   1.077       .  S
C1215      C1220   1.388   1_565  A
C1215      H1221   1.083       .  S
C1216      C1217   1.409       .  A
C1217      C1218   1.386       .  A
C1217      H1222   1.081       .  S
C1218      H1223   1.083       .  S
C1219      C1220   1.396       .  A
C1220      H1224   1.083       .  S
C1225      C1226   1.345       .  D
C1226      H1660   1.088       .  S
H1228      C1658   1.088       .  S
C1229      C1230   1.402       .  A
C1229      C1234   1.401       .  A
C1229      H1235   1.083       .  S
C1230      C1231   1.404       .  A
C1231      C1232   1.402       .  A
C1231      H1236   1.083       .  S
C1232      C1233   1.404       .  A
C1232      H1237   1.083       .  S
C1233      C1234   1.404       .  A
C1234      H1238   1.083       .  S
C1239      C1240   1.403       .  A
C1239      C1244   1.398       .  A
C1239      H1245   1.083       .  S
C1240      C1241   1.405       .  A
C1241      C1242   1.404       .  A
C1241      H1246   1.083       .  S
C1242      C1243   1.404       .  A
C1242      H1247   1.083       .  S
C1243      C1244   1.400       .  A
C1244      H1248   1.083       .  S
C1249      C1250   1.341       .  D
C1249      H1251   1.087       .  S
C1250      H1252   1.085       .  S
C1253      C1254   1.407       .  A
C1253      C1258   1.403       .  A
C1253      H1259   1.083       .  S
C1254      C1687   1.405       .  A
C1255      C1686   1.406       .  A
C1255      C1256   1.392       .  A
C1255      H1260   1.083       .  S
C1256      C1689   1.399       .  A
C1256      H1261   1.083       .  S
C1257      C1688   1.401       .  A
C1257      C1258   1.403       .  A
C1258      H1262   1.083       .  S
C1263      C1264   1.408       .  A
C1263      C1268   1.405       .  A
C1263      H1269   1.083       .  S
C1264      C1697   1.399       .  A
C1265      C1696   1.403       .  A
C1265      C1266   1.401       .  A
C1265      H1270   1.083       .  S
C1266      C1699   1.402       .  A
C1266      H1271   1.083       .  S
C1267      C1698   1.407       .  A
C1267      C1268   1.405       .  A
C1268      H1272   1.082       .  S
C1273      C1274   1.385       .  A
C1273      C1278   1.375       .  A
C1273      H1279   1.082       .  S
C1274      C1275   1.401       .  A
C1275      C1276   1.386       .  A
C1275      H1280   1.083       .  S
C1276      C1277   1.401       .  A
C1276      H1281   1.082       .  S
C1277      C1278   1.412       .  A
C1278      H1282   1.082       .  S
C1283      C1284   1.392       .  A
C1283      C1288   1.371       .  A
C1283      H1289   1.083       .  S
C1284      C1285   1.410       .  A
C1285      C1286   1.392       .  A
C1285      H1290   1.077       .  S
C1286      C1287   1.402       .  A
C1286      H1291   1.082       .  S
C1287      C1288   1.409       .  A
C1288      H1292   1.073       .  S
C1293      C1294   1.343       .  D
C1293      H1295   1.085   1_556  S
C1294      N1310   1.439       .  S
C1294      H1728   1.088       .  S
H1296      C1726   1.086       .  S
C1297      C1299   1.523   1_556  S
C1297      C1301   1.574       .  S
C1297      C1300   1.520       .  S
C1297      C1706   1.487       .  S
C1298      C1302   1.552       .  S
C1298      C1304   1.539       .  S
C1298      C1303   1.524       .  S
C1298      C1716   1.484       .  S
C1299      C1307   1.364       .  A
C1300      C1311   1.380       .  A
C1301      C1315   1.402       .  A
C1302      C1305   1.391       .  A
C1303      C1309   1.365       .  A
C1304      C1312   1.393       .  A
C1305      N1306   1.361       .  A
C1305      H1318   1.076       .  S
N1306      C1696   1.436       .  S
C1307      H1308   1.084   1_554  S
C1309      H1319   1.082       .  S
N1310      C1311   1.354       .  A
C1311      H1317   1.080       .  S
C1312      N1313   1.364       .  A
C1312      H1314   1.081       .  S
N1313      C1686   1.445       .  S
C1315      H1316   1.074       .  S
C1320      C1322   1.552       .  S
C1320      C1324   1.520       .  S
C1320      C1323   1.527       .  S
C1320      C1719   1.484       .  S
C1321      C1325   1.518       .  S
C1321      C1327   1.585       .  S
C1321      C1326   1.571       .  S
C1321      C1709   1.523       .  S
C1322      C1330   1.389       .  A
C1322      C1325   1.384       .  A
C1323      C1334   1.380       .  A
C1323      C1326   1.379       .  A
C1324      C1338   1.376       .  A
C1324      C1327   1.386       .  A
C1325      C1328   1.370       .  A
C1326      C1332   1.407       .  A
C1327      C1335   1.404       .  A
C1328      N1329   1.352       .  A
C1328      H1341   1.083       .  S
N1329      C1330   1.361       .  A
N1329      C1672   1.433       .  S
C1330      H1331   1.074       .  S
C1332      N1333   1.361       .  A
C1332      H1342   1.077       .  S
N1333      C1334   1.349       .  A
N1333      C1681   1.451       .  S
C1334      H1340   1.082       .  S
C1335      N1336   1.356       .  A
C1335      H1337   1.072       .  S
N1336      C1338   1.343       .  A
N1336      C1662   1.438       .  S
C1338      H1339   1.078       .  S
C1343      C1345   1.526       .  S
C1343      C1346   1.522       .  S
C1343      C1638   1.478       .  S
C1344      C1348   1.572   1_545  S
C1344      C1349   1.514   1_545  S
C1344      C1651   1.481       .  S
C1345      C1353   1.387       .  A
C1347      C1361   1.387       .  A
C1348      C1351   1.400       .  A
C1350      C1358   1.365       .  A
C1351      N1352   1.358       .  A
C1351      H1364   1.072       .  S
N1352      C1699   1.436       .  S
C1353      H1354   1.082       .  S
C1355      N1356   1.353       .  A
C1355      H1365   1.080       .  S
N1356      C1658   1.441       .  S
C1357      H1363   1.082       .  S
C1358      N1359   1.331       .  A
C1358      H1360   1.084       .  S
N1359      C1689   1.434       .  S
C1361      H1362   1.072       .  S
C1366      C1370   1.511       .  S
C1366      C1648   1.517       .  S
C1367      C1373   1.553       .  S
C1367      C1641   1.487       .  S
C1368      C1376   1.407       .  A
C1368      C1371   1.384       .  A
C1369      C1372   1.384       .  A
C1370      C1384   1.369       .  A
C1370      C1373   1.381       .  A
C1371      C1374   1.375   1_545  A
C1373      C1381   1.395       .  A
C1374      N1375   1.335       .  A
C1374      H1387   1.082       .  S
N1375      C1376   1.354   1_565  A
N1375      C1675   1.436       .  S
C1376      H1377   1.070       .  S
C1378      N1379   1.349       .  A
C1378      H1388   1.080       .  S
N1379      C1380   1.362       .  A
N1379      C1633   1.450       .  S
C1380      H1386   1.078       .  S
C1381      N1382   1.365       .  A
C1381      H1383   1.078       .  S
N1382      C1384   1.350       .  A
N1382      C1665   1.437       .  S
C1384      H1385   1.083       .  S
O1389     Ni1397   1.919       .  S
O1389      C1399   1.280       .  A
O1391      C1401   1.310       .  A
O1392     Ni1397   2.053       .  S
O1392      C1402   1.309       .  A
O1393     Ni1398   2.060       .  S
O1393      C1402   1.311       .  A
O1394      C1401   1.310       .  A
O1395     Ni1398   1.934       .  S
O1395      C1400   1.282       .  A
Ni1397    Ni1398   2.361       .  S
C1399      C1725   1.475       .  S
C1400      C1630   1.491       .  S
C1401      C1416   1.648       .  S
C1402      C1415   1.647       .  S
O1403     Ni1411   1.925       .  S
O1403      C1413   1.281       .  A
O1404     Ni1411   1.904       .  S
O1404      C1414   1.275       .  A
O1405     Ni1411   2.056       .  S
O1405      C1415   1.310       .  A
O1406     Ni1411   2.055       .  S
O1406      C1416   1.310       .  A
O1407     Ni1412   2.058       .  S
O1407      C1416   1.311       .  A
O1408     Ni1412   2.057       .  S
O1408      C1415   1.310       .  A
O1409     Ni1412   1.922       .  S
O1409      C1414   1.282       .  A
O1410     Ni1412   1.937       .  S
O1410      C1413   1.283       .  A
Ni1411    Ni1412   2.361       .  S
C1413      C1682   1.488       .  S
C1414      C1625   1.466       .  S
O1418     Ni1425   1.920   1_655  S
O1418      C1428   1.282       .  A
O1419     Ni1425   2.040       .  S
O1419      C1429   1.305       .  A
O1420      C1430   1.312       .  A
O1422     Ni1426   2.048       .  S
O1424     Ni1426   1.917       .  S
C1428      C1657   1.469       .  S
C1429      C1444   1.638       .  S
C1430      C1443   1.644       .  S
O1431     Ni1439   1.912       .  S
O1431      C1441   1.277       .  A
O1432     Ni1439   1.915   1_655  S
O1432      C1442   1.278       .  A
O1433     Ni1439   2.060       .  S
O1433      C1443   1.311       .  A
O1434     Ni1439   2.053       .  S
O1434      C1444   1.310       .  A
O1435     Ni1440   2.045       .  S
O1436     Ni1440   2.052       .  S
O1437     Ni1440   1.936   1_655  S
O1438     Ni1440   1.939       .  S
C1442      C1634   1.488       .  S
C1445      C1447   1.503   1_556  S
C1445      C1449   1.555       .  S
C1445      C1448   1.542   1_556  S
C1445      C1598   1.488       .  S
C1446      C1450   1.585       .  S
C1446      C1452   1.506       .  S
C1446      C1451   1.569       .  S
C1446      C1611   1.511       .  S
C1447      C1455   1.367       .  A
C1448      C1459   1.381       .  A
C1449      C1463   1.401       .  A
C1450      C1453   1.402       .  A
C1451      C1457   1.406       .  A
C1452      C1460   1.369       .  A
C1453      N1454   1.356       .  A
C1453      H1466   1.070       .  S
N1454      C1578   1.432       .  S
C1455      H1456   1.082   1_554  S
C1457      N1458   1.362       .  A
C1457      H1467   1.078       .  S
N1458      C1629   1.454       .  S
C1459      H1465   1.079   1_554  S
C1460      N1461   1.343       .  A
C1460      H1462   1.083       .  S
N1461      C1588   1.438       .  S
C1463      H1464   1.079       .  S
C1468      C1470   1.557       .  S
C1468      C1472   1.505       .  S
C1468      C1471   1.538       .  S
C1468      C1608   1.470       .  S
C1469      C1473   1.529       .  S
C1469      C1475   1.549       .  S
C1469      C1474   1.536       .  S
C1469      C1601   1.483       .  S
C1470      C1478   1.394       .  A
C1470      C1473   1.404       .  A
C1471      C1482   1.382       .  A
C1471      C1474   1.385       .  A
C1472      C1486   1.372       .  A
C1472      C1475   1.354       .  A
C1473      C1476   1.374       .  A
C1474      C1480   1.372       .  A
C1475      C1483   1.392       .  A
C1476      N1477   1.345       .  A
C1476      H1489   1.083       .  S
N1477      C1478   1.357       .  A
N1477      C1558   1.437       .  S
C1478      H1479   1.074       .  S
C1480      N1481   1.356       .  A
C1480      H1490   1.080       .  S
N1481      C1482   1.357       .  A
N1481      C1626   1.438       .  S
C1482      H1488   1.081       .  S
C1483      N1484   1.362       .  A
C1483      H1485   1.065       .  S
N1484      C1486   1.342       .  A
N1484      C1571   1.435       .  S
C1486      H1487   1.083       .  S
C1491      C1493   1.512   1_545  S
C1491      C1494   1.544       .  S
C1491      C1548   1.480   1_545  S
C1492      C1496   1.545       .  S
C1492      C1497   1.548       .  S
C1492      C1538   1.492       .  S
C1493      C1501   1.373       .  A
C1494      C1505   1.375       .  A
C1495      C1509   1.394       .  A
C1496      C1499   1.391   1_545  A
C1497      C1503   1.384       .  A
C1498      C1506   1.377       .  A
C1499      N1500   1.363       .  A
C1499      H1512   1.070       .  S
N1500      C1591   1.435       .  S
C1501      H1502   1.083       .  S
C1503      N1504   1.353   1_556  A
C1503      H1513   1.078       .  S
C1505      H1511   1.080   1_545  S
C1506      N1507   1.344   1_556  A
C1506      H1508   1.083       .  S
N1507      C1581   1.438       .  S
C1509      H1510   1.073       .  S
C1514      C1516   1.568   1_545  S
C1514      C1517   1.543   1_545  S
C1514      C1541   1.485       .  S
C1515      C1519   1.503       .  S
C1515      C1520   1.571       .  S
C1515      C1551   1.512       .  S
C1516      C1524   1.400       .  A
C1516      C1519   1.382       .  A
C1517      C1528   1.390       .  A
C1517      C1520   1.391       .  A
C1518      C1532   1.372       .  A
C1518      C1521   1.377       .  A
C1519      C1522   1.366       .  A
C1520      C1526   1.398       .  A
C1521      C1529   1.406       .  A
C1522      N1523   1.345       .  A
C1522      H1535   1.083       .  S
N1523      C1524   1.363       .  A
N1523      C1568   1.435       .  S
C1524      H1525   1.075       .  S
C1526      N1527   1.356       .  A
C1526      H1536   1.077       .  S
N1527      C1528   1.354       .  A
N1527      C1618   1.451       .  S
C1528      H1534   1.080   1_565  S
C1529      N1530   1.358       .  A
C1529      H1531   1.071       .  S
N1530      C1532   1.340       .  A
N1530      C1561   1.436       .  S
C1532      H1533   1.083       .  S
C1537      C1542   1.385       .  A
C1537      H1543   1.077       .  S
C1538      C1539   1.407       .  A
C1539      C1540   1.377       .  A
C1539      H1544   1.083       .  S
C1540      C1541   1.401       .  A
C1540      H1545   1.083       .  S
C1542      H1546   1.077       .  S
C1547      C1548   1.413       .  A
C1547      C1552   1.387       .  A
C1547      H1553   1.078       .  S
C1549      C1550   1.390       .  A
C1549      H1554   1.083       .  S
C1550      H1555   1.083       .  S
C1551      C1552   1.388       .  A
C1552      H1556   1.081       .  S
C1557      C1558   1.401       .  A
C1557      C1562   1.400       .  A
C1557      H1563   1.083       .  S
C1558      C1559   1.407       .  A
C1559      C1560   1.403       .  A
C1559      H1564   1.083       .  S
C1560      C1561   1.402       .  A
C1560      H1565   1.083       .  S
C1561      C1562   1.404       .  A
C1562      H1566   1.083       .  S
C1567      C1568   1.402       .  A
C1567      C1572   1.398       .  A
C1567      H1573   1.083       .  S
C1568      C1569   1.403       .  A
C1569      C1570   1.406       .  A
C1569      H1574   1.083       .  S
C1570      C1571   1.407       .  A
C1570      H1575   1.083       .  S
C1571      C1572   1.402       .  A
C1572      H1576   1.083       .  S
C1577      C1578   1.404       .  A
C1577      C1582   1.399       .  A
C1577      H1583   1.083       .  S
C1579      C1580   1.404       .  A
C1579      H1584   1.083       .  S
C1580      C1581   1.407       .  A
C1580      H1585   1.083       .  S
C1582      H1586   1.083       .  S
C1587      C1588   1.403       .  A
C1587      C1592   1.399       .  A
C1587      H1593   1.083       .  S
C1589      C1590   1.405       .  A
C1589      H1594   1.083       .  S
C1590      C1591   1.407       .  A
C1590      H1595   1.083       .  S
C1592      H1596   1.083       .  S
C1597      C1598   1.397       .  A
C1597      C1602   1.366       .  A
C1597      H1603   1.080       .  S
C1598      C1599   1.401       .  A
C1599      C1600   1.380       .  A
C1599      H1604   1.081       .  S
C1600      C1601   1.406       .  A
C1600      H1605   1.081       .  S
C1601      C1602   1.398       .  A
C1602      H1606   1.076       .  S
C1607      C1608   1.407       .  A
C1607      C1612   1.390       .  A
C1607      H1613   1.083       .  S
C1608      C1609   1.412       .  A
C1609      C1610   1.385       .  A
C1609      H1614   1.081       .  S
C1610      C1611   1.388       .  A
C1610      H1615   1.082       .  S
C1611      C1612   1.397       .  A
C1612      H1616   1.083       .  S
C1617      C1618   1.351       .  D
C1618      H1620   1.086       .  S
C1621      C1622   1.335       .  D
C1625      C1626   1.342       .  D
C1625      H1627   1.085       .  S
C1626      H1628   1.087       .  S
C1629      C1630   1.357       .  D
C1630      H1632   1.085       .  S
C1633      C1634   1.356       .  D
C1634      H1636   1.085       .  S
C1637      C1642   1.372       .  A
C1637      H1643   1.078       .  S
C1638      C1639   1.393       .  A
C1639      C1640   1.375       .  A
C1639      H1644   1.082       .  S
C1640      H1645   1.079       .  S
C1641      C1642   1.390       .  A
C1642      H1646   1.083       .  S
C1647      C1652   1.391       .  A
C1647      H1653   1.083       .  S
C1648      C1649   1.394       .  A
C1649      C1650   1.392       .  A
C1649      H1654   1.082       .  S
C1650      H1655   1.080       .  S
C1651      C1652   1.410       .  A
C1652      H1656   1.083       .  S
C1657      C1658   1.344       .  D
C1661      C1662   1.402       .  A
C1661      C1666   1.405       .  A
C1661      H1667   1.083       .  S
C1662      C1663   1.406       .  A
C1663      C1664   1.399       .  A
C1663      H1668   1.083       .  S
C1664      C1665   1.399       .  A
C1664      H1669   1.083       .  S
C1665      C1666   1.407       .  A
C1666      H1670   1.083       .  S
C1671      C1672   1.405       .  A
C1671      C1676   1.404       .  A
C1671      H1677   1.082       .  S
C1672      C1673   1.400       .  A
C1673      C1674   1.395       .  A
C1673      H1678   1.083       .  S
C1674      C1675   1.406       .  A
C1674      H1679   1.083       .  S
C1675      C1676   1.402       .  A
C1676      H1680   1.083       .  S
C1681      C1682   1.353       .  D
C1681      H1683   1.086       .  S
C1682      H1684   1.086       .  S
C1685      C1686   1.405       .  A
C1685      C1690   1.409       .  A
C1685      H1691   1.082       .  S
C1687      C1688   1.401       .  A
C1687      H1692   1.083       .  S
C1688      H1693   1.083       .  S
C1689      C1690   1.409       .  A
C1690      H1694   1.083       .  S
C1695      C1696   1.402       .  A
C1695      C1700   1.402       .  A
C1695      H1701   1.083       .  S
C1697      C1698   1.395       .  A
C1697      H1702   1.083       .  S
C1698      H1703   1.082       .  S
C1699      C1700   1.407       .  A
C1700      H1704   1.083       .  S
C1705      C1706   1.410       .  A
C1705      C1710   1.394       .  A
C1705      H1711   1.079       .  S
C1706      C1707   1.411       .  A
C1707      C1708   1.393       .  A
C1707      H1712   1.083       .  S
C1708      C1709   1.394       .  A
C1708      H1713   1.083       .  S
C1709      C1710   1.395       .  A
C1710      H1714   1.082       .  S
C1715      C1716   1.415       .  A
C1715      C1720   1.364       .  A
C1715      H1721   1.080       .  S
C1716      C1717   1.392       .  A
C1717      C1718   1.388       .  A
C1717      H1722   1.081       .  S
C1718      C1719   1.412       .  A
C1718      H1723   1.073       .  S
C1719      C1720   1.389       .  A
C1720      H1724   1.084       .  S
C1725      C1726   1.352       .  D
C1725      H1727   1.086       .  S
