geometry optimzed in LAMMPS
_audit_creation_date              2020-11-30 
_audit_creation_method            'lammps2cif' 
_symmetry_space_group_name_H-M    'P1' 
_symmetry_Int_Tables_number       1 
_symmetry_cell_setting            triclinic 
loop_ 
_symmetry_equiv_pos_as_xyz 
  x,y,z 
_cell_length_a                    77.72798025 
_cell_length_b                    29.711283876618136 
_cell_length_c                    25.411494293535696 
_cell_angle_alpha                 89.6683969365963 
_cell_angle_beta                  90.28291138734694 
_cell_angle_gamma                 90.00411474297749 
loop_ 
_atom_site_label 
_atom_site_type_symbol 
_atom_site_fract_x 
_atom_site_fract_y 
_atom_site_fract_z 
_atom_site_charge 
C1          C  0.71027617  0.54184302  0.94158169     0.31100
C2          C  0.70910241  0.54514610  0.05005073     0.31100
C3          C  0.71939373  0.58176859  0.96776524    -0.05100
C4          C  0.69204927  0.54420965  0.96590530    -0.05900
C5          C  0.71798897  0.50117722  0.97149759    -0.05800
C6          C  0.71884412  0.58333279  0.02248429    -0.05100
C7          C  0.69154097  0.54617395  0.02109411    -0.05900
C8          C  0.71736641  0.50279054  0.02630421    -0.05800
C9          C  0.72668439  0.62272446  0.03764930    -0.31200
N10         N  0.73194842  0.64517780  0.99376952     0.15300
C11         C  0.72750029  0.62038922  0.95093599    -0.31200
H12         H  0.72967343  0.63008357  0.91040331     0.17300
C13         C  0.67446075  0.54576565  0.03525346    -0.30200
N14         N  0.66454669  0.54367190  0.99116753     0.14000
C15         C  0.67513042  0.54217923  0.94860531    -0.30200
C16         C  0.72360006  0.46217293  0.04490277    -0.30400
N17         N  0.72825860  0.43645250  0.00333515     0.14600
H18         H  0.72435898  0.45156188  0.08560363     0.17200
C19         C  0.72454853  0.45959384  0.95849373    -0.30500
H20         H  0.72591455  0.44627815  0.91931808     0.17200
H21         H  0.67082334  0.53938159  0.90822647     0.17200
H22         H  0.72788789  0.63473341  0.07761717     0.17300
H23         H  0.66949367  0.54548262  0.07486350     0.17200
C24         C  0.71841031  0.53891594  0.44140870     0.31100
C25         C  0.71621755  0.53872338  0.54963733     0.31100
C26         C  0.72410121  0.58214078  0.46928490    -0.05100
C27         C  0.70041665  0.53085888  0.46461893    -0.05900
C28         C  0.72916310  0.50247282  0.47042295    -0.05800
C29         C  0.72292733  0.58172453  0.52385264    -0.05100
C30         C  0.69931450  0.53076327  0.51941907    -0.05900
C31         C  0.72811323  0.50246901  0.52599860    -0.05800
C32         C  0.72985177  0.62108420  0.54189030    -0.31200
N33         N  0.73528257  0.64573208  0.50005031     0.15300
C34         C  0.73180673  0.62224472  0.45532146    -0.31200
H35         H  0.73522777  0.63251025  0.41584523     0.17300
C36         C  0.68217222  0.52687554  0.53190153    -0.30200
N37         N  0.67287366  0.52525728  0.48655347     0.14000
C38         C  0.68390413  0.52700399  0.44536772    -0.30200
C39         C  0.73227003  0.45939268  0.54259390    -0.30400
N40         N  0.73626872  0.43405337  0.50023092     0.14600
H41         H  0.73085937  0.44607734  0.58200287     0.17200
C42         C  0.73374158  0.45931099  0.45636230    -0.30500
H43         H  0.73399762  0.44610613  0.41683349     0.17200
H44         H  0.68007511  0.52660623  0.40441867     0.17200
H45         H  0.73134280  0.63032817  0.58279861     0.17300
H46         H  0.67678540  0.52714003  0.57098849     0.17200
C47         C  0.80680072  0.04589082  0.05940331     0.31100
C48         C  0.80708580  0.04031393  0.95111522     0.31100
C49         C  0.79723237  0.08366033  0.02897364    -0.05100
C50         C  0.82469670  0.04729522  0.03335503    -0.05900
C51         C  0.79895927  0.00303599  0.03548868    -0.05800
C52         C  0.79735892  0.08045887  0.97421624    -0.05100
C53         C  0.82487034  0.04365379  0.97843656    -0.05900
C54         C  0.79912395  0.00028779  0.98072896    -0.05800
C55         C  0.78935178  0.11827914  0.95415811    -0.31200
N56         N  0.78442219  0.14459543  0.99493333     0.15300
C57         C  0.78940502  0.12413571  0.04043781    -0.31200
H58         H  0.78818243  0.13915876  0.07866534     0.17300
C59         C  0.84186500  0.03868716  0.96405551    -0.30200
N60         N  0.85197474  0.04155574  0.00765881     0.14000
C61         C  0.84161163  0.04682061  0.05016200    -0.30200
C62         C  0.79246226  0.95901014  0.96759183    -0.30400
N63         N  0.78800607  0.93679579  0.01240410     0.14600
H64         H  0.79137541  0.94564260  0.92826296     0.17200
C65         C  0.79202959  0.96333460  0.05417246    -0.30500
H66         H  0.79015160  0.95440827  0.09507548     0.17200
H67         H  0.84604298  0.04854746  0.09052635     0.17200
H68         H  0.78763214  0.12647198  0.91289544     0.17300
H69         H  0.84659511  0.03177096  0.92510989     0.17200
C70         C  0.81344241  0.03746331  0.55972572     0.31100
C71         C  0.81210607  0.04238851  0.45133794     0.31100
C72         C  0.80312165  0.07682541  0.53609724    -0.05100
C73         C  0.83088523  0.04212319  0.53111035    -0.05900
C74         C  0.80550425  0.99666865  0.53159801    -0.05800
C75         C  0.80240670  0.07973932  0.48108424    -0.05100
C76         C  0.83005837  0.04556914  0.47629030    -0.05900
C77         C  0.80490998  0.99957124  0.47683043    -0.05800
C78         C  0.79450212  0.12017742  0.46935025    -0.31200
N79         N  0.79000119  0.14065524  0.51500413     0.15300
C80         C  0.79538761  0.11466700  0.55592679    -0.31200
H81         H  0.79415800  0.12315060  0.59714136     0.17300
C82         C  0.84663872  0.04856170  0.45793957    -0.30200
N83         N  0.85751531  0.04507196  0.49949150     0.14000
C84         C  0.84814164  0.04057521  0.54409653    -0.30200
C85         C  0.79747325  0.96093790  0.45853337    -0.30400
N86         N  0.79350988  0.93420633  0.50019166     0.14600
H87         H  0.79506411  0.95303991  0.41762534     0.17200
C88         C  0.79840450  0.95565407  0.54514469    -0.30500
H89         H  0.79692296  0.94258909  0.58464227     0.17200
H90         H  0.85368231  0.03531310  0.58266704     0.17200
H91         H  0.79305014  0.13530277  0.43099272     0.17300
H92         H  0.85059838  0.05130743  0.41731846     0.17200
O93         O  0.48137478  0.52599619  0.01013520    -0.73400
O94         O  0.53066241  0.53765312  0.00766029    -0.73400
O95         O  0.50401184  0.57530689  0.95321749    -0.73500
O96         O  0.50772375  0.48891299  0.06457468    -0.73500
O97         O  0.50941256  0.43278677  0.00668586    -0.73400
O98         O  0.50531631  0.51901653  0.89541852    -0.73400
O99         O  0.53201398  0.48239914  0.94877123    -0.73400
O100        O  0.48294398  0.47009967  0.95208493    -0.73500
Ni101      Ni  0.50592517  0.53394906  0.01106735     1.25400
Ni102      Ni  0.50751674  0.47407970  0.94871032     1.25400
C103        C  0.47407681  0.49626708  0.98121698     0.88800
C104        C  0.53943473  0.51214785  0.97728002     0.88700
C105        C  0.50384011  0.56089517  0.90594474     0.88800
C106        C  0.50889961  0.44696916  0.05405199     0.88900
O107        O  0.49036764  0.51118056  0.45418541    -0.73400
O108        O  0.53948664  0.52459265  0.45568765    -0.73400
O109        O  0.51663521  0.47839622  0.39637355    -0.73500
O110        O  0.51328767  0.55773327  0.51329257    -0.73500
O111        O  0.51516875  0.49862265  0.56781238    -0.73400
O112        O  0.51899073  0.41914588  0.45046422    -0.73400
O113        O  0.54146977  0.46642361  0.51139235    -0.73400
O114        O  0.49244979  0.45208302  0.50838310    -0.73500
Ni115      Ni  0.51485481  0.51999903  0.45283864     1.25400
Ni116      Ni  0.51709879  0.45685055  0.51135281     1.25400
C117        C  0.48330075  0.47985429  0.48146815     0.88800
C118        C  0.54847742  0.49829503  0.48497488     0.88700
C119        C  0.51836471  0.43606179  0.40407325     0.88800
C120        C  0.51379839  0.54102646  0.55970267     0.88900
O121        O  0.03418831  0.04120972  0.02432257    -0.73400
O122        O  0.98497685  0.04488972  0.01668481    -0.73400
O123        O  0.00824576  0.00228413  0.07837206    -0.73500
O124        O  0.01088381  0.08396963  0.96176056    -0.73500
O125        O  0.01119376  0.02502318  0.90754453    -0.73400
O126        O  0.00836005  0.94370107  0.02361788    -0.73400
O127        O  0.98500311  0.98700102  0.96112997    -0.73400
O128        O  0.03433619  0.98268312  0.96970608    -0.73500
Ni129      Ni  0.00956059  0.04519108  0.02224949     1.25400
Ni130      Ni  0.00970939  0.98251432  0.96352740     1.25400
C131        C  0.04236029  0.01121831  0.99847397     0.88800
C132        C  0.97688840  0.01674066  0.98766840     0.88700
C133        C  0.00798729  0.95982806  0.07007941     0.88800
C134        C  0.01153028  0.06746802  0.91544236     0.88900
O135        O  0.99016851  0.02860544  0.46822009    -0.73400
O136        O  0.03904658  0.00983928  0.46099138    -0.73400
O137        O  0.01110945  0.97775136  0.40894795    -0.73500
O138        O  0.01802583  0.06152572  0.51991944    -0.73500
O139        O  0.01617179  0.00481940  0.57779761    -0.73400
O140        O  0.00861885  0.92096091  0.46646841    -0.73400
O141        O  0.03656355  0.95311951  0.51842041    -0.73400
O142        O  0.98832112  0.97263676  0.52688874    -0.73500
Ni143      Ni  0.01468188  0.02142802  0.46229800     1.25400
Ni144      Ni  0.01236239  0.96087954  0.52443555     1.25400
C145        C  0.98125541  0.00344815  0.49891683     0.88800
C146        C  0.04581668  0.97869315  0.48948309     0.88700
C147        C  0.00843986  0.93616762  0.41930506     0.88800
C148        C  0.01827227  0.04662847  0.56714078     0.88900
C149        C  0.30449695  0.46358494  0.95826521     0.31100
C150        C  0.30545081  0.46612208  0.06690468     0.31100
C151        C  0.29719408  0.42256686  0.98724298    -0.05100
C152        C  0.32242176  0.46838954  0.98381072    -0.05900
C153        C  0.29461763  0.50265550  0.98422732    -0.05800
C154        C  0.29773039  0.42383342  0.04205177    -0.05100
C155        C  0.32288078  0.46988067  0.03886493    -0.05900
C156        C  0.29511442  0.50394907  0.03943575    -0.05800
C157        C  0.28960467  0.38587003  0.06019672    -0.31200
N158        N  0.28408617  0.36172345  0.01811988     0.15300
C159        C  0.28866241  0.38391142  0.97335798    -0.31200
H160        H  0.28583426  0.37321078  0.93363197     0.17300
C161        C  0.33975278  0.47628365  0.05352715    -0.30200
N162        N  0.34951715  0.47798538  0.00937355     0.14000
C163        C  0.33908346  0.47343488  0.96668205    -0.30200
C164        C  0.29002101  0.54661811  0.05380524    -0.30400
N165        N  0.28587328  0.57046568  0.00993289     0.14600
H166        H  0.29048038  0.56051610  0.09284436     0.17200
C167        C  0.28912072  0.54448054  0.96745291    -0.30500
H168        H  0.28864523  0.55647179  0.92725861     0.17200
H169        H  0.34330175  0.47496567  0.92621487     0.17200
H170        H  0.28744101  0.37717330  0.10103826     0.17300
H171        H  0.34459731  0.47952572  0.09331842     0.17200
C172        C  0.31394132  0.45114395  0.45857463     0.31100
C173        C  0.31330665  0.44881830  0.56716994     0.31100
C174        C  0.30485789  0.41066687  0.48396694    -0.05100
C175        C  0.33159346  0.45073199  0.48642556    -0.05900
C176        C  0.30524072  0.49153799  0.48553443    -0.05800
C177        C  0.30455785  0.40929366  0.53875668    -0.05100
C178        C  0.33136633  0.44922282  0.54151953    -0.05900
C179        C  0.30479174  0.49043086  0.54059895    -0.05800
C180        C  0.29672306  0.36934753  0.55298797    -0.31200
N181        N  0.29219294  0.34673416  0.50848898     0.15300
C182        C  0.29708874  0.37192196  0.46625606    -0.31200
H183        H  0.29551570  0.36231566  0.42550502     0.17300
C184        C  0.34836465  0.45065453  0.55804287    -0.30200
N185        N  0.35866332  0.45347626  0.51505821     0.14000
C186        C  0.34855548  0.45403616  0.47132555    -0.30200
C187        C  0.29861723  0.53196748  0.55647273    -0.30400
N188        N  0.29529072  0.55767894  0.51314097     0.14600
H189        H  0.29751186  0.54376120  0.59645673     0.17200
C190        C  0.29978072  0.53379896  0.47000982    -0.30500
H191        H  0.29966152  0.54713752  0.43036232     0.17200
H192        H  0.35327469  0.45688228  0.43149126     0.17200
H193        H  0.29462585  0.35761142  0.59283113     0.17300
H194        H  0.35298302  0.45111619  0.59822670     0.17200
C195        C  0.20982517  0.96698365  0.06860979     0.31100
C196        C  0.21128020  0.96133213  0.96020496     0.31100
C197        C  0.22184773  0.93062375  0.04599289    -0.05100
C198        C  0.19268855  0.95706298  0.04025630    -0.05900
C199        C  0.21610032  0.00944077  0.03899576    -0.05800
C200        C  0.22241374  0.92803987  0.99127743    -0.05100
C201        C  0.19340818  0.95410526  0.98498935    -0.05900
C202        C  0.21660943  0.00657457  0.98410935    -0.05800
C203        C  0.23181578  0.89072393  0.97853483    -0.31200
N204        N  0.23715997  0.87028216  0.02368619     0.15300
C205        C  0.23139757  0.89479306  0.06505672    -0.31200
H206        H  0.23342921  0.88590573  0.10587144     0.17300
C207        C  0.17685294  0.96056796  0.96690762    -0.30200
N208        N  0.16619623  0.96536275  0.00841590     0.14000
C209        C  0.17571349  0.96473463  0.05329364    -0.30200
C210        C  0.22264513  0.04706152  0.96520629    -0.30400
N211        N  0.22623849  0.07395216  0.00675122     0.14600
H212        H  0.22464176  0.05603724  0.92439465     0.17200
C213        C  0.22240017  0.05130915  0.05170991    -0.30500
H214        H  0.22439137  0.06446210  0.09065100     0.17200
H215        H  0.17080987  0.97162245  0.09221160     0.17200
H216        H  0.23375607  0.87833837  0.93909234     0.17300
H217        H  0.17285728  0.96574496  0.92657018     0.17200
C218        C  0.21355723  0.94997676  0.56822784     0.31100
C219        C  0.21616585  0.95012701  0.45997435     0.31100
C220        C  0.22223408  0.90869903  0.54382220    -0.05100
C221        C  0.19647557  0.95271305  0.53704904    -0.05900
C222        C  0.22382559  0.98934319  0.54355682    -0.05800
C223        C  0.22373394  0.90863430  0.48909038    -0.05100
C224        C  0.19796023  0.95287469  0.48235009    -0.05900
C225        C  0.22520768  0.98932253  0.48859168    -0.05800
C226        C  0.23248075  0.86965488  0.47635749    -0.31200
N227        N  0.23583704  0.84590235  0.52120244     0.15300
C228        C  0.22959488  0.86955818  0.56256874    -0.31200
H229        H  0.23053238  0.85939196  0.60344051     0.14100
C230        C  0.18179848  0.95909582  0.46135995    -0.30200
N231        N  0.17048081  0.96223857  0.50149947     0.14000
C232        C  0.17921636  0.95869531  0.54775625    -0.30200
C233        C  0.23409550  0.02775629  0.47458814    -0.30400
N234        N  0.23800744  0.05118374  0.51894431     0.14600
H235        H  0.23746543  0.03796436  0.43506321     0.17200
C236        C  0.23175319  0.02806702  0.56106558    -0.30500
H237        H  0.23244732  0.03946673  0.60135549     0.17200
H238        H  0.17337191  0.96214602  0.58596492     0.17200
H239        H  0.23620371  0.85918298  0.43741261     0.17300
H240        H  0.17851538  0.96149191  0.41996856     0.17200
C241        C  0.22299816  0.95979005  0.80965206     0.17000
C242        C  0.23057948  0.96616837  0.75985842    -0.32000
C243        C  0.22086978  0.95452813  0.71494984     0.21400
C244        C  0.20456696  0.93631432  0.71972130     0.03600
C245        C  0.19718758  0.92888408  0.76943789    -0.21800
C246        C  0.20668202  0.94163530  0.81417739     0.12800
S247        S  0.23211178  0.97395634  0.86877573    -0.05400
C248        C  0.21338268  0.95744245  0.90026309    -0.08900
C249        C  0.20129785  0.93917329  0.86571266    -0.25500
S250        S  0.19470415  0.92558476  0.66091179    -0.02700
C251        C  0.21228688  0.94804956  0.62851843    -0.16100
C252        C  0.22554432  0.96018897  0.66292200    -0.14100
H253        H  0.24329359  0.98071281  0.75623803     0.21200
H254        H  0.18437041  0.91496133  0.77302070     0.17300
H255        H  0.18929070  0.92385697  0.87704691     0.19800
H256        H  0.23794759  0.97286871  0.65068886     0.13100
C257        C  0.20869644  0.98845527  0.22182102     0.17000
C258        C  0.20974880  0.00677727  0.27279935    -0.32000
C259        C  0.21176842  0.97681486  0.31556461     0.21400
C260        C  0.21234614  0.93080853  0.30770894     0.03600
C261        C  0.21068971  0.91250106  0.25699629    -0.21800
C262        C  0.20898334  0.94242385  0.21422468     0.12800
S263        S  0.20782725  0.01878596  0.16450835    -0.05400
C264        C  0.20865825  0.96914016  0.12909949    -0.08900
C265        C  0.20823014  0.93119716  0.16165037    -0.25500
S266        S  0.21512241  0.90020549  0.36416225    -0.02700
C267        C  0.21620925  0.94970332  0.39959980    -0.16100
C268        C  0.21352348  0.98778785  0.36810822    -0.14100
H269        H  0.20951247  0.04283339  0.27870264     0.21200
H270        H  0.21117178  0.87647725  0.25101781     0.17300
H271        H  0.20789239  0.89689427  0.14775083     0.19800
H272        H  0.21257458  0.02176625  0.38286559     0.13100
C273        C  0.26225811  0.16078477  0.54477998     0.17000
C274        C  0.27127421  0.19723663  0.56654007    -0.32000
C275        C  0.27459804  0.23450758  0.53386251     0.21400
C276        C  0.26929255  0.23527315  0.48169105     0.03600
C277        C  0.26036105  0.19873221  0.45985258    -0.21800
C278        C  0.25696886  0.16156413  0.49258957     0.12800
S279        S  0.25651866  0.11308099  0.57831606    -0.05400
C280        C  0.24690521  0.09376390  0.52136115    -0.08900
C281        C  0.24822884  0.12314485  0.47880565    -0.25500
S282        S  0.27454497  0.28353407  0.44857238    -0.02700
C283        C  0.28394652  0.30324303  0.50569714    -0.16100
C284        C  0.28298801  0.27340930  0.54794873    -0.14100
H285        H  0.27538874  0.19672904  0.60731203     0.21200
H286        H  0.25615332  0.19935522  0.41916748     0.17300
H287        H  0.24281286  0.11723667  0.44014557     0.19800
H288        H  0.28825109  0.27951807  0.58675084     0.13100
C289        C  0.25571509  0.73035965  0.54806908     0.17000
C290        C  0.26091045  0.68869832  0.56916974    -0.32000
C291        C  0.27190985  0.66185734  0.53886075     0.21400
C292        C  0.27743899  0.67585953  0.48961305     0.03600
C293        C  0.27225510  0.71751603  0.46852869    -0.21800
C294        C  0.26125468  0.74432766  0.49883035     0.12800
S295        S  0.24250334  0.76787593  0.57876887    -0.05400
C296        C  0.24438593  0.80285272  0.52462011    -0.08900
C297        C  0.25475529  0.78578723  0.48501987    -0.25500
S298        S  0.29026623  0.63789643  0.45827156    -0.02700
C299        C  0.28822992  0.60259936  0.51212258    -0.16100
C300        C  0.27813882  0.61995359  0.55217846    -0.14100
H301        H  0.25652751  0.67763154  0.60749759     0.21200
H302        H  0.27652218  0.72842111  0.43000693     0.17300
H303        H  0.25758663  0.80288875  0.44836115     0.19800
H304        H  0.27506240  0.60233538  0.58832621     0.13100
C305        C  0.24443806  0.19059241  0.98065113     0.17000
C306        C  0.25029180  0.23122008  0.95902007    -0.32000
C307        C  0.25928049  0.26049539  0.99238131     0.21400
C308        C  0.26210657  0.25009408  0.04500093     0.03600
C309        C  0.25612492  0.20977192  0.06667722    -0.21800
C310        C  0.24733383  0.18034979  0.03325821     0.12800
S311        S  0.23395299  0.14948600  0.94650849    -0.05400
C312        C  0.23352062  0.11828195  0.00391982    -0.08900
C313        C  0.24108369  0.13906101  0.04688578    -0.25500
S314        S  0.27359675  0.28931276  0.07875740    -0.02700
C315        C  0.27483439  0.32000768  0.02117771    -0.16100
C316        C  0.26653251  0.30073199  0.97841464    -0.14100
H317        H  0.24820767  0.23929019  0.91786534     0.21200
H318        H  0.25845751  0.20136535  0.10762763     0.17300
H319        H  0.24235854  0.12456178  0.08585082     0.19800
H320        H  0.26588541  0.31503393  0.93920910     0.13100
C321        C  0.25806199  0.75655635  0.05160610     0.17000
C322        C  0.26491766  0.71704179  0.07370484    -0.32000
C323        C  0.26987570  0.68280760  0.03905973     0.21400
C324        C  0.26809227  0.68773313  0.98501825     0.03600
C325        C  0.26126903  0.72708719  0.96305520    -0.21800
C326        C  0.25633948  0.76119656  0.99753643     0.12800
S327        S  0.25094410  0.80190998  0.08635567    -0.05400
C328        C  0.24561983  0.82727231  0.02714088    -0.08900
C329        C  0.24928544  0.80151188  0.98326313    -0.25500
S330        S  0.27451792  0.64241015  0.94951960    -0.02700
C331        C  0.27969913  0.61608242  0.00807382    -0.16100
C332        C  0.27655257  0.64167795  0.05264509    -0.14100
H333        H  0.26622743  0.71304493  0.11591697     0.21200
H334        H  0.25977391  0.73087255  0.92087055     0.17300
H335        H  0.24674584  0.81109457  0.94287527     0.19800
H336        H  0.27874275  0.63086283  0.09283144     0.13100
C337        C  0.29757663  0.46536104  0.80446942     0.17000
C338        C  0.29218005  0.47437749  0.75250826    -0.32000
C339        C  0.30221706  0.45749972  0.71110188     0.21400
C340        C  0.31677403  0.43199535  0.72100786     0.03600
C341        C  0.32192039  0.42193323  0.77307706    -0.21800
C342        C  0.31206364  0.43960925  0.81457715     0.12800
S343        S  0.28783013  0.48530056  0.85983874    -0.05400
C344        C  0.30378381  0.46041139  0.89787037    -0.08900
C345        C  0.31540531  0.43563859  0.86790242    -0.25500
S346        S  0.32741925  0.41609204  0.66516480    -0.02700
C347        C  0.31261400  0.44596782  0.62760116    -0.16100
C348        C  0.29950240  0.46444157  0.65798800    -0.14100
H349        H  0.28090384  0.49478718  0.74469172     0.21200
H350        H  0.33336897  0.40220787  0.78089477     0.17300
H351        H  0.32601993  0.41646090  0.88418248     0.19800
H352        H  0.28842235  0.48203905  0.64235129     0.13100
C353        C  0.30009742  0.47270050  0.22049618     0.17000
C354        C  0.29491920  0.48273229  0.27197664    -0.32000
C355        C  0.30445165  0.46424378  0.31391195     0.21400
C356        C  0.31838565  0.43639522  0.30510845     0.03600
C357        C  0.32336985  0.42550496  0.25335331    -0.21800
C358        C  0.31395720  0.44467600  0.21118228     0.12800
S359        S  0.29051287  0.49327850  0.16484594    -0.05400
C360        C  0.30562669  0.46542378  0.12738220    -0.08900
C361        C  0.31697403  0.43962661  0.15790173    -0.25500
S362        S  0.32825810  0.41817655  0.36190779    -0.02700
C363        C  0.31397206  0.45024088  0.39812637    -0.16100
C364        C  0.30156275  0.47110529  0.36662469    -0.14100
H365        H  0.28408054  0.50474780  0.27904745     0.21200
H366        H  0.33426355  0.40369490  0.24628556     0.17300
H367        H  0.32704512  0.41867070  0.14192217     0.19800
H368        H  0.29063610  0.48965738  0.38108788     0.13100
C369        C  0.12354404  0.98610893  0.47025750     0.17000
C370        C  0.10774891  0.00050484  0.44914536    -0.32000
C371        C  0.09269338  0.98441966  0.47301330     0.21400
C372        C  0.09338989  0.95502140  0.51559428     0.03600
C373        C  0.10912068  0.94116840  0.53707772    -0.21800
C374        C  0.12412226  0.95759102  0.51368140     0.12800
S375        S  0.14329267  0.00048377  0.44621483    -0.05400
C376        C  0.15228839  0.96836916  0.49589904    -0.08900
C377        C  0.14058754  0.94773923  0.52899378    -0.25500
S378        S  0.07387518  0.93878812  0.53884585    -0.02700
C379        C  0.06454497  0.97260617  0.49145183    -0.16100
C380        C  0.07608358  0.99490239  0.45903521    -0.14100
H381        H  0.10722169  0.02310983  0.41559620     0.21200
H382        H  0.10964162  0.91854262  0.57062429     0.17300
H383        H  0.14396852  0.92579897  0.56162099     0.19800
H384        H  0.07253013  0.01781106  0.42751309     0.13100
C385        C  0.11835351  0.96892721  0.97961340     0.17000
C386        C  0.10175419  0.96206133  0.95973003    -0.32000
C387        C  0.08823238  0.98524842  0.98357833     0.21400
C388        C  0.09109205  0.01463126  0.02491253     0.03600
C389        C  0.10774301  0.02137653  0.04507616    -0.21800
C390        C  0.12127571  0.99747835  0.02177338     0.12800
S391        S  0.13632903  0.94367188  0.95576907    -0.05400
C392        C  0.14794039  0.97102091  0.00376694    -0.08900
C393        C  0.13832358  0.99851781  0.03627825    -0.25500
S394        S  0.07283749  0.03951106  0.04813742    -0.02700
C395        C  0.06125805  0.00922595  0.00232102    -0.16100
C396        C  0.07117362  0.98189219  0.97058021    -0.14100
H397        H  0.09945989  0.93931994  0.92728479     0.21200
H398        H  0.11001910  0.04387849  0.07774970     0.17300
H399        H  0.14353697  0.01848575  0.06809115     0.19800
H400        H  0.06615324  0.96041116  0.93982402     0.13100
C401        C  0.00671384  0.11401408  0.77985146     0.17000
C402        C  0.00008292  0.11493503  0.72861919    -0.32000
C403        C  0.01148898  0.10602637  0.68752692     0.21400
C404        C  0.02895068  0.09962368  0.69660843     0.03600
C405        C  0.03575183  0.10166193  0.74754902    -0.21800
C406        C  0.02415451  0.10736900  0.78893919     0.12800
S407        S  0.99424994  0.10926947  0.83456765    -0.05400
C408        C  0.01260722  0.09661648  0.86949204    -0.08900
C409        C  0.02761568  0.09816901  0.84062335    -0.25500
S410        S  0.03992594  0.07876055  0.64426023    -0.02700
C411        C  0.02073074  0.07743945  0.61064082    -0.16100
C412        C  0.00677484  0.09406626  0.63769964    -0.14100
H413        H  0.98634313  0.11685362  0.72164311     0.21200
H414        H  0.04912322  0.09351247  0.75509736     0.17300
H415        H  0.03999494  0.08657648  0.85507038     0.19800
H416        H  0.99356855  0.09176429  0.62412147     0.13100
C417        C  0.99452217  0.89871124  0.28744158     0.17000
C418        C  0.98679934  0.90647752  0.23842984    -0.32000
C419        C  0.99755137  0.90785547  0.19446484     0.21400
C420        C  0.01500019  0.89834280  0.19839504     0.03600
C421        C  0.02253491  0.88799035  0.24705397    -0.21800
C422        C  0.01203030  0.89010546  0.29157123     0.12800
S423        S  0.98483954  0.91082073  0.34556496    -0.05400
C424        C  0.00470153  0.90683717  0.37518032    -0.08900
C425        C  0.01784976  0.89378937  0.34220081    -0.25500
S426        S  0.02643893  0.91022175  0.14297176    -0.02700
C427        C  0.00765136  0.92962684  0.11523455    -0.16100
C428        C  0.99325348  0.92562999  0.14648006    -0.14100
H429        H  0.97343413  0.91655449  0.23552895     0.21200
H430        H  0.03633725  0.88395439  0.25078121     0.17300
H431        H  0.03135261  0.89445952  0.35298100     0.19800
H432        H  0.98072851  0.93936184  0.13659688     0.13100
C433        C  0.43397359  0.48523307  0.47035809     0.17000
C434        C  0.41689133  0.49519106  0.45675162    -0.32000
C435        C  0.40380578  0.47488725  0.48636133     0.21400
C436        C  0.40752073  0.44628561  0.52823049     0.03600
C437        C  0.42465704  0.43588185  0.54149898    -0.21800
C438        C  0.43777355  0.45588707  0.51141923     0.12800
S439        S  0.45158873  0.50741161  0.43984517    -0.05400
C440        C  0.46434087  0.47651700  0.48230792    -0.08900
C441        C  0.45522282  0.45042917  0.51820917    -0.25500
S442        S  0.38969123  0.42598217  0.55988818    -0.02700
C443        C  0.37716808  0.45559890  0.51539752    -0.16100
C444        C  0.38643982  0.48006273  0.47854402    -0.14100
H445        H  0.41392347  0.51789604  0.42447720     0.21200
H446        H  0.42763242  0.41330604  0.57388712     0.17300
H447        H  0.46104149  0.42936799  0.54832337     0.19800
H448        H  0.38076079  0.50067579  0.44778110     0.13100
C449        C  0.39734343  0.50134117  0.02368089     0.17000
C450        C  0.41378763  0.51473042  0.04006832    -0.32000
C451        C  0.42779239  0.50189211  0.00902394     0.21400
C452        C  0.42555618  0.47664724  0.96376156     0.03600
C453        C  0.40907774  0.46385603  0.94687864    -0.21800
C454        C  0.39506044  0.47689528  0.97781581     0.12800
S455        S  0.37880570  0.51216428  0.05701778    -0.05400
C456        C  0.36782427  0.48405487  0.00819388    -0.08900
C457        C  0.37809268  0.46720583  0.96841781    -0.25500
S458        S  0.44426527  0.46303943  0.93274391    -0.02700
C459        C  0.45520238  0.49215717  0.98093324    -0.16100
C460        C  0.44476929  0.51124489  0.01882694    -0.14100
H461        H  0.41560412  0.53393236  0.07575707     0.21200
H462        H  0.40727498  0.44425567  0.91147069     0.17300
H463        H  0.37344193  0.44807769  0.93511544     0.19800
H464        H  0.44937682  0.53043642  0.05214327     0.13100
C465        C  0.49505137  0.60376774  0.77172819     0.17000
C466        C  0.48880787  0.59829638  0.72045628    -0.32000
C467        C  0.50093746  0.59476910  0.68016994     0.21400
C468        C  0.51842277  0.59996110  0.68983877     0.03600
C469        C  0.52454071  0.60874539  0.74052590    -0.21800
C470        C  0.51253931  0.60882505  0.78137066     0.12800
S471        S  0.48321288  0.59217287  0.82633723    -0.05400
C472        C  0.50208924  0.59185870  0.86182594    -0.08900
C473        C  0.51654035  0.60335120  0.83338325    -0.25500
S474        S  0.53131183  0.58475839  0.63892220    -0.02700
C475        C  0.51299137  0.57054212  0.60494112    -0.16100
C476        C  0.49774796  0.57833619  0.63097042    -0.14100
H477        H  0.47533815  0.59114472  0.71325310     0.21200
H478        H  0.53822818  0.60956601  0.74869112     0.17300
H479        H  0.52958148  0.59987138  0.84814182     0.19800
H480        H  0.48519763  0.56792454  0.61685455     0.13100
C481        C  0.52601114  0.39064374  0.26888260     0.17000
C482        C  0.53243878  0.39123998  0.21751006    -0.32000
C483        C  0.52047535  0.39355583  0.17614575     0.21400
C484        C  0.50289572  0.39186490  0.18535270     0.03600
C485        C  0.49650842  0.38828704  0.23652878    -0.21800
C486        C  0.50842505  0.38939310  0.27796061     0.12800
S487        S  0.53809724  0.40259230  0.32326422    -0.05400
C488        C  0.51925470  0.40732788  0.35792547    -0.08900
C489        C  0.50452710  0.39823533  0.32924602    -0.25500
S490        S  0.49047495  0.40568123  0.13231499    -0.02700
C491        C  0.50909935  0.41538677  0.09800602    -0.16100
C492        C  0.52409250  0.40638893  0.12557681    -0.14100
H493        H  0.54607087  0.39546466  0.21035215     0.21200
H494        H  0.48281647  0.39030153  0.24392220     0.17300
H495        H  0.49158833  0.40400226  0.34339698     0.19800
H496        H  0.53685640  0.41481838  0.11169661     0.13100
C497        C  0.90557439  0.04863407  0.47476838     0.17000
C498        C  0.92225684  0.05615298  0.45593239    -0.32000
C499        C  0.93582440  0.03386038  0.48167857     0.21400
C500        C  0.93286745  0.00516479  0.52394988     0.03600
C501        C  0.91626125  0.99797837  0.54301183    -0.21800
C502        C  0.90275782  0.02050762  0.51765447     0.12800
S503        S  0.88728749  0.07142726  0.44836295    -0.05400
C504        C  0.87588006  0.04320648  0.49626071    -0.08900
C505        C  0.88575995  0.01754543  0.53046257    -0.25500
S506        S  0.95082624  0.98030182  0.54911117    -0.02700
C507        C  0.96256822  0.00918706  0.50263920    -0.16100
C508        C  0.95294450  0.03651689  0.46934885    -0.14100
H509        H  0.92454596  0.07817676  0.42259393     0.21200
H510        H  0.91395848  0.97565674  0.57608022     0.17300
H511        H  0.88074205  0.99699985  0.56218605     0.19800
H512        H  0.95815044  0.05671747  0.43759227     0.13100
C513        C  0.81958365  0.04935162  0.71224108     0.17000
C514        C  0.82575879  0.05891106  0.76288286    -0.32000
C515        C  0.81518111  0.04843077  0.80574880     0.21400
C516        C  0.79903708  0.02980502  0.79862254     0.03600
C517        C  0.79266932  0.02099563  0.74757351    -0.21800
C518        C  0.80342225  0.03096170  0.70445480     0.12800
S519        S  0.83071554  0.05916567  0.65587409    -0.05400
C520        C  0.81380702  0.03697469  0.62006148    -0.08900
C521        C  0.79989337  0.02454312  0.65159607    -0.25500
S522        S  0.78845945  0.01945479  0.85646906    -0.02700
C523        C  0.80638332  0.03824059  0.89087286    -0.16100
C524        C  0.81920273  0.05461096  0.85789700    -0.14100
H525        H  0.83840660  0.07338777  0.76866337     0.21200
H526        H  0.78001616  0.00657422  0.74178836     0.17300
H527        H  0.78780827  0.01169171  0.63661983     0.19800
H528        H  0.83074209  0.07154869  0.87067860     0.13100
C529        C  0.81664084  0.02247213  0.29937489     0.17000
C530        C  0.82174679  0.00870339  0.24879896    -0.32000
C531        C  0.81325619  0.02796557  0.20506798     0.21400
C532        C  0.80010434  0.05872240  0.21183261     0.03600
C533        C  0.79483282  0.07188179  0.26223813    -0.21800
C534        C  0.80355233  0.05347735  0.30579555     0.12800
S535        S  0.82544487  0.00413608  0.35735696    -0.05400
C536        C  0.81196007  0.04038342  0.39105758    -0.08900
C537        C  0.80060054  0.06326911  0.35790359    -0.25500
S538        S  0.79157453  0.07872358  0.15452313    -0.02700
C539        C  0.80627251  0.04703764  0.11978244    -0.16100
C540        C  0.81662505  0.02041475  0.15247938    -0.14100
H541        H  0.83205684  0.98463961  0.24378048     0.21200
H542        H  0.78459094  0.09614201  0.26723290     0.17300
H543        H  0.79029643  0.08476995  0.37042434     0.19800
H544        H  0.82625068  0.99709639  0.13852565     0.13100
C545        C  0.90063556  0.04307950  0.02755069     0.17000
C546        C  0.91748862  0.04865492  0.04619465    -0.32000
C547        C  0.93098034  0.03463584  0.01373051     0.21400
C548        C  0.92789719  0.01557623  0.96490827     0.03600
C549        C  0.91101814  0.01063579  0.94584921    -0.21800
C550        C  0.89749862  0.02488401  0.97831027     0.12800
S551        S  0.88253748  0.05716646  0.06159480    -0.05400
C552        C  0.87050200  0.03893248  0.00868359    -0.08900
C553        C  0.88023073  0.02262512  0.96709185    -0.25500
S554        S  0.94611451  0.99908827  0.93266486    -0.02700
C555        C  0.95795947  0.01875449  0.98528080    -0.16100
C556        C  0.94818200  0.03699553  0.02532639    -0.14100
H557        H  0.91997985  0.06303337  0.08454488     0.21200
H558        H  0.90852409  0.99601393  0.90762275     0.17300
H559        H  0.87503723  0.00939157  0.93075896     0.19800
H560        H  0.95339314  0.05063158  0.06148487     0.13100
C561        C  0.75069028  0.31320282  0.48055726     0.17000
C562        C  0.75581562  0.27189473  0.45964662    -0.32000
C563        C  0.76547384  0.24310697  0.49207496     0.21400
C564        C  0.76960410  0.25441603  0.54347838     0.03600
C565        C  0.76426173  0.29556509  0.56470373    -0.21800
C566        C  0.75481157  0.32475040  0.53191181     0.12800
S567        S  0.74018199  0.35414417  0.44587285    -0.05400
C568        C  0.74143577  0.38758207  0.50097267    -0.08900
C569        C  0.74937372  0.36733878  0.54407783    -0.25500
S570        S  0.78177197  0.21503578  0.57584233    -0.02700
C571        C  0.78142953  0.18335195  0.51914165    -0.16100
C572        C  0.77219859  0.20245281  0.47789478    -0.14100
H573        H  0.75280650  0.26308959  0.41933399     0.21200
H574        H  0.76766098  0.30486669  0.60456988     0.17300
H575        H  0.75179132  0.38363380  0.58139099     0.19800
H576        H  0.77043588  0.18745949  0.43952095     0.13100
C577        C  0.77129494  0.82354227  0.46850771     0.17000
C578        C  0.76317518  0.78694837  0.44436122    -0.32000
C579        C  0.75699466  0.75251679  0.47702042     0.21400
C580        C  0.75888494  0.75442576  0.53126686     0.03600
C581        C  0.76708218  0.79090178  0.55538420    -0.21800
C582        C  0.77319485  0.82542403  0.52274837     0.12800
S583        S  0.77932526  0.86894649  0.43580922    -0.05400
C584        C  0.78529337  0.89100285  0.49590495    -0.08900
C585        C  0.78125141  0.86402996  0.53881873    -0.25500
S586        S  0.75036762  0.70974016  0.56413409    -0.02700
C587        C  0.74417159  0.68799673  0.50412310    -0.16100
C588        C  0.74856805  0.71441139  0.46107718    -0.14100
H589        H  0.76163953  0.78554005  0.40201733     0.21200
H590        H  0.76851496  0.79245189  0.59775232     0.17300
H591        H  0.78389183  0.87212913  0.57951860     0.19800
H592        H  0.74570894  0.70651974  0.42044893     0.13100
C593        C  0.62488545  0.53038468  0.45698946     0.17000
C594        C  0.60850381  0.53345307  0.43388626    -0.32000
C595        C  0.59430573  0.52247658  0.46532935     0.21400
C596        C  0.59635153  0.50947298  0.51752348     0.03600
C597        C  0.61265713  0.50778788  0.54099743    -0.21800
C598        C  0.62683460  0.51816138  0.50943918     0.12800
S599        S  0.64380397  0.53878091  0.42461773    -0.05400
C600        C  0.65443083  0.52561158  0.48247190    -0.08900
C601        C  0.64372984  0.51576800  0.52445860    -0.25500
S602        S  0.57778816  0.49392527  0.54797554    -0.02700
C603        C  0.56709311  0.50529169  0.48997188    -0.16100
C604        C  0.57741792  0.52091183  0.44948079    -0.14100
H605        H  0.60693483  0.54262932  0.39283800     0.21200
H606        H  0.61426885  0.49737836  0.58164070     0.17300
H607        H  0.64800562  0.50617894  0.56352976     0.19800
H608        H  0.57289439  0.52910513  0.41020320     0.13100
C609        C  0.74760079  0.32076158  0.03069135     0.17000
C610        C  0.75366834  0.28050393  0.05293717    -0.32000
C611        C  0.76189368  0.24992992  0.01955539     0.21400
C612        C  0.76398177  0.25887103  0.96636934     0.03600
C613        C  0.75790618  0.29914987  0.94411366    -0.21800
C614        C  0.74968154  0.32974773  0.97750909     0.12800
S615        S  0.73743992  0.36240260  0.06460048    -0.05400
C616        C  0.73586351  0.39229742  0.00637827    -0.08900
C617        C  0.74299045  0.37070723  0.96328414    -0.25500
S618        S  0.77434971  0.21736894  0.93267039    -0.02700
C619        C  0.77601693  0.18771798  0.99103131    -0.16100
C620        C  0.76872814  0.20920899  0.03394432    -0.14100
H621        H  0.75210019  0.27337947  0.09447518     0.21200
H622        H  0.75953627  0.30635899  0.90262223     0.17300
H623        H  0.74350282  0.38425366  0.92372700     0.19800
H624        H  0.76832357  0.19589250  0.07362664     0.13100
C625        C  0.76852682  0.82079653  0.03723655     0.17000
C626        C  0.76228880  0.78022801  0.05826845    -0.32000
C627        C  0.75413367  0.75022427  0.02366733     0.21400
C628        C  0.75233360  0.76007775  0.97052057     0.03600
C629        C  0.75857636  0.80051966  0.94954247    -0.21800
C630        C  0.76667686  0.83048754  0.98408425     0.12800
S631        S  0.77857352  0.86214450  0.07247454    -0.05400
C632        C  0.78030420  0.89274405  0.01479560    -0.08900
C633        C  0.77339926  0.87154367  0.97096393    -0.25500
S634        S  0.74213341  0.71942046  0.93496246    -0.02700
C635        C  0.74017490  0.68859734  0.99233753    -0.16100
C636        C  0.74715129  0.70924362  0.03650515    -0.14100
H637        H  0.76366410  0.77246971  0.09977206     0.21200
H638        H  0.75714856  0.80835069  0.90806670     0.17300
H639        H  0.77302417  0.88549325  0.93156178     0.19800
H640        H  0.74727291  0.69505949  0.07581349     0.13100
C641        C  0.70678436  0.56070115  0.69912104     0.17000
C642        C  0.69939821  0.57270044  0.74763494    -0.32000
C643        C  0.70734885  0.55693312  0.79412655     0.21400
C644        C  0.72238043  0.53206862  0.79203452     0.03600
C645        C  0.72982910  0.52036559  0.74363491    -0.21800
C646        C  0.72147543  0.53446064  0.69720516     0.12800
S647        S  0.69882564  0.57504967  0.63850065    -0.05400
C648        C  0.71469272  0.54266483  0.60963096    -0.08900
C649        C  0.72618188  0.52440457  0.64627546    -0.25500
S650        S  0.73026371  0.51697644  0.85226968    -0.02700
C651        C  0.71237118  0.54081779  0.88149869    -0.16100
C652        C  0.70168076  0.56270291  0.84523837    -0.14100
H653        H  0.68772659  0.59253142  0.74900049     0.21200
H654        H  0.74141607  0.50017853  0.74226498     0.17300
H655        H  0.73756421  0.50534426  0.63659602     0.19800
H656        H  0.69036843  0.58186230  0.85549553     0.13100
C657        C  0.72519603  0.53366591  0.28792728     0.17000
C658        C  0.73057327  0.52422808  0.23634216    -0.32000
C659        C  0.72013004  0.53918153  0.19430507     0.21400
C660        C  0.70504769  0.56256781  0.20317656     0.03600
C661        C  0.69998778  0.57341316  0.25473173    -0.21800
C662        C  0.71042177  0.55838218  0.29682205     0.12800
S663        S  0.73532653  0.51576237  0.34430764    -0.05400
C664        C  0.71936206  0.54113746  0.38101140    -0.08900
C665        C  0.70740007  0.56418061  0.34978749    -0.25500
S666        S  0.69383076  0.57555517  0.14681766    -0.02700
C667        C  0.70934328  0.54804756  0.11040997    -0.16100
C668        C  0.72295095  0.53229915  0.14149335    -0.14100
H669        H  0.74218466  0.50510437  0.22930037     0.21200
H670        H  0.68823153  0.59191392  0.26179561     0.17300
H671        H  0.69671449  0.58337096  0.36500081     0.19800
H672        H  0.73441626  0.51642670  0.12641376     0.13100
C673        C  0.61589145  0.54751513  0.01112041     0.17000
C674        C  0.59914967  0.55276756  0.03068416    -0.32000
C675        C  0.58543541  0.53652232  0.00006995     0.21400
C676        C  0.58828673  0.51580300  0.95214459     0.03600
C677        C  0.60502171  0.51121889  0.93215375    -0.21800
C678        C  0.61875347  0.52758220  0.96272375     0.12800
S679        S  0.63420722  0.56320978  0.04348543    -0.05400
C680        C  0.64597015  0.54310188  0.99114666    -0.08900
C681        C  0.63600134  0.52533213  0.95071951    -0.25500
S682        S  0.57000905  0.49653022  0.92213731    -0.02700
C683        C  0.55833740  0.51702272  0.97436705    -0.16100
C684        C  0.56825902  0.53776601  0.01279305    -0.14100
H685        H  0.59693136  0.56832195  0.06848126     0.21200
H686        H  0.60725436  0.49506061  0.89472227     0.17300
H687        H  0.64107187  0.51050725  0.91522290     0.19800
H688        H  0.56321219  0.55220717  0.04857434     0.13100
loop_ 
_geom_bond_atom_site_label_1 
_geom_bond_atom_site_label_2 
_geom_bond_distance 
_geom_bond_site_symmetry_2 
_ccdc_geom_bond_type 
C1            C3   1.535       .  S
C1            C5   1.543       .  S
C1            C4   1.550       .  S
C1          C651   1.537       .  S
C2            C6   1.532       .  S
C2            C8   1.540       .  S
C2            C7   1.548       .  S
C2          C667   1.537       .  S
C3           C11   1.376       .  A
C3            C6   1.392   1_556  A
C4           C15   1.386       .  A
C4            C7   1.405   1_556  A
C5           C19   1.379       .  A
C5            C8   1.395   1_556  A
C6            C9   1.376       .  A
C7           C13   1.377       .  A
C8           C16   1.380       .  A
C9           N10   1.361   1_554  A
C9           H22   1.082       .  S
N10          C11   1.361       .  A
N10         C635   1.440       .  S
C11          H12   1.082       .  S
C13          N14   1.358   1_554  A
C13          H23   1.080       .  S
N14          C15   1.363       .  A
N14         C680   1.444       .  S
C15          H21   1.081       .  S
C16          N17   1.358       .  A
C16          H18   1.081       .  S
N17          C19   1.357   1_554  A
N17         C616   1.440       .  S
C19          H20   1.079       .  S
C24          C26   1.534       .  S
C24          C28   1.549       .  S
C24          C27   1.539       .  S
C24         C664   1.538       .  S
C25          C29   1.526       .  S
C25          C31   1.546       .  S
C25          C30   1.537       .  S
C25         C648   1.535       .  S
C26          C34   1.379       .  A
C26          C29   1.390       .  A
C27          C38   1.376       .  A
C27          C30   1.396       .  A
C28          C42   1.380       .  A
C28          C31   1.415       .  A
C29          C32   1.368       .  A
C30          C36   1.376       .  A
C31          C39   1.383       .  A
C32          N33   1.357       .  A
C32          H45   1.082       .  S
N33          C34   1.363       .  A
N33         C587   1.437       .  S
C34          H35   1.081       .  S
C36          N37   1.358       .  A
C36          H46   1.080       .  S
N37          C38   1.357       .  A
N37         C600   1.437       .  S
C38          H44   1.081       .  S
C39          N40   1.355       .  A
C39          H41   1.081       .  S
N40          C42   1.354       .  A
N40         C568   1.438       .  S
C42          H43   1.081       .  S
C47          C49   1.547       .  S
C47          C51   1.539       .  S
C47          C50   1.544       .  S
C47         C539   1.536       .  S
C48          C52   1.533       .  S
C48          C54   1.535       .  S
C48          C53   1.547       .  S
C48         C523   1.533       .  S
C49          C57   1.381       .  A
C49          C52   1.395   1_554  A
C50          C61   1.380       .  A
C50          C53   1.401   1_554  A
C51          C65   1.379   1_545  A
C51          C54   1.395   1_554  A
C52          C55   1.378       .  A
C53          C59   1.380       .  A
C54          C62   1.374   1_545  A
C55          N56   1.358       .  A
C55          H68   1.083       .  S
N56          C57   1.358   1_556  A
N56         C619   1.441       .  S
C57          H58   1.076       .  S
C59          N60   1.358   1_556  A
C59          H69   1.078       .  S
N60          C61   1.360       .  A
N60         C552   1.442       .  S
C61          H67   1.082       .  S
C62          N63   1.359   1_556  A
C62          H64   1.080       .  S
N63          C65   1.361       .  A
N63         C632   1.440       .  S
C65          H66   1.082       .  S
C70          C72   1.536       .  S
C70          C74   1.538   1_545  S
C70          C73   1.547       .  S
C70         C520   1.533       .  S
C71          C75   1.545       .  S
C71          C77   1.531   1_545  S
C71          C76   1.533       .  S
C71         C536   1.533       .  S
C72          C80   1.374       .  A
C72          C75   1.401       .  A
C73          C84   1.380       .  A
C73          C76   1.397       .  A
C74          C88   1.380       .  A
C74          C77   1.394       .  A
C75          C78   1.380       .  A
C76          C82   1.375       .  A
C77          C85   1.368       .  A
C78          N79   1.360       .  A
C78          H91   1.076       .  S
N79          C80   1.356       .  A
N79         C571   1.438       .  S
C80          H81   1.083       .  S
C82          N83   1.353       .  A
C82          H92   1.081       .  S
N83          C84   1.356       .  A
N83         C504   1.431       .  S
C84          H90   1.079       .  S
C85          N86   1.356       .  A
C85          H87   1.082       .  S
N86          C88   1.364       .  A
N86         C584   1.438       .  S
C88          H89   1.081       .  S
O93        Ni101   1.923       .  S
O93         C103   1.283   1_554  A
O94        Ni101   1.928       .  S
O94         C104   1.283   1_554  A
O95        Ni101   1.916   1_556  S
O95         C105   1.278       .  A
O96        Ni101   1.907       .  S
O96         C106   1.279       .  A
O97        Ni102   1.917   1_554  S
O97         C106   1.278       .  A
O98        Ni102   1.903       .  S
O98         C105   1.279       .  A
O99        Ni102   1.920       .  S
O99         C104   1.281       .  A
O100       Ni102   1.916       .  S
O100        C103   1.280       .  A
Ni101      Ni102   2.393   1_554  S
C103        C459   1.472       .  S
C104        C683   1.479       .  S
C105        C472   1.452       .  S
C106        C491   1.455       .  S
O107       Ni115   1.922       .  S
O107        C117   1.283       .  A
O108       Ni115   1.920       .  S
O108        C118   1.281       .  A
O109       Ni115   1.905       .  S
O109        C119   1.279       .  A
O110       Ni115   1.911       .  S
O110        C120   1.277       .  A
O111       Ni116   1.909       .  S
O111        C120   1.280       .  A
O112       Ni116   1.922       .  S
O112        C119   1.280       .  A
O113       Ni116   1.916       .  S
O113        C118   1.281       .  A
O114       Ni116   1.922       .  S
O114        C117   1.282       .  A
Ni115      Ni116   2.393       .  S
C117        C440   1.477       .  S
C118        C603   1.467       .  S
C119        C488   1.456       .  S
C120        C475   1.452       .  S
O121       Ni129   1.918       .  S
O121        C131   1.281   1_554  A
O122       Ni129   1.915   1_655  S
O122        C132   1.281   1_554  A
O123       Ni129   1.910       .  S
O123        C133   1.280   1_545  A
O124       Ni129   1.919   1_556  S
O124        C134   1.279       .  A
O125       Ni130   1.901   1_545  S
O125        C134   1.278       .  A
O126       Ni130   1.911   1_554  S
O126        C133   1.277       .  A
O127       Ni130   1.926   1_655  S
O127        C132   1.282   1_565  A
O128       Ni130   1.920       .  S
O128        C131   1.282   1_565  A
Ni129      Ni130   2.393   1_544  S
C131        C395   1.473   1_556  S
C132        C555   1.473       .  S
C133        C427   1.453       .  S
C134        C408   1.452       .  S
O135       Ni143   1.924   1_655  S
O135        C145   1.283       .  A
O136       Ni143   1.925       .  S
O136        C146   1.283   1_545  A
O137       Ni143   1.901   1_565  S
O137        C147   1.279       .  A
O138       Ni143   1.910       .  S
O138        C148   1.277       .  A
O139       Ni144   1.910   1_545  S
O139        C148   1.280       .  A
O140       Ni144   1.918       .  S
O140        C147   1.278       .  A
O141       Ni144   1.902       .  S
O141        C146   1.278       .  A
O142       Ni144   1.902   1_655  S
O142        C145   1.278   1_565  A
Ni143      Ni144   2.394   1_545  S
C145        C507   1.466       .  S
C146        C379   1.467       .  S
C147        C424   1.452       .  S
C148        C411   1.451       .  S
C149        C151   1.531       .  S
C149        C153   1.545       .  S
C149        C152   1.541       .  S
C149        C344   1.539       .  S
C150        C154   1.531       .  S
C150        C156   1.543       .  S
C150        C155   1.538       .  S
C150        C360   1.537       .  S
C151        C159   1.373       .  A
C151        C154   1.394   1_556  A
C152        C163   1.376       .  A
C152        C155   1.400   1_556  A
C153        C167   1.379       .  A
C153        C156   1.404   1_556  A
C154        C157   1.371       .  A
C155        C161   1.375       .  A
C156        C164   1.380       .  A
C157        N158   1.359       .  A
C157        H170   1.082       .  S
N158        C159   1.360   1_554  A
N158        C315   1.435       .  S
C159        H160   1.082       .  S
C161        N162   1.358       .  A
C161        H171   1.082       .  S
N162        C163   1.359   1_554  A
N162        C456   1.435       .  S
C163        H169   1.082       .  S
C164        N165   1.355       .  A
C164        H166   1.077       .  S
N165        C167   1.356   1_554  A
N165        C331   1.438       .  S
C167        H168   1.080       .  S
C172        C174   1.535       .  S
C172        C176   1.543       .  S
C172        C175   1.541       .  S
C172        C363   1.536       .  S
C173        C177   1.539       .  S
C173        C179   1.552       .  S
C173        C178   1.551       .  S
C173        C347   1.539       .  S
C174        C182   1.377       .  A
C174        C177   1.393       .  A
C175        C186   1.378       .  A
C175        C178   1.401       .  A
C176        C190   1.380       .  A
C176        C179   1.400       .  A
C177        C180   1.381       .  A
C178        C184   1.385       .  A
C179        C187   1.387       .  A
C180        N181   1.363       .  A
C180        H193   1.082       .  S
N181        C182   1.361       .  A
N181        C283   1.444       .  S
C182        H183   1.082       .  S
C184        N185   1.360       .  A
C184        H194   1.081       .  S
N185        C186   1.358       .  A
N185        C443   1.440       .  S
C186        H192   1.081       .  S
C187        N188   1.360       .  A
C187        H189   1.081       .  S
N188        C190   1.356       .  A
N188        C299   1.443       .  S
C190        H191   1.081       .  S
C195        C197   1.544       .  S
C195        C199   1.545   1_565  S
C195        C198   1.541       .  S
C195        C264   1.542       .  S
C196        C200   1.528       .  S
C196        C202   1.534   1_565  S
C196        C201   1.543       .  S
C196        C248   1.538       .  S
C197        C205   1.382       .  A
C197        C200   1.394   1_554  A
C198        C209   1.381       .  A
C198        C201   1.409   1_554  A
C199        C213   1.376       .  A
C199        C202   1.399   1_554  A
C200        C203   1.369       .  A
C201        C207   1.377       .  A
C202        C210   1.376       .  A
C203        N204   1.358   1_556  A
C203        H216   1.081       .  S
N204        C205   1.360       .  A
N204        C328   1.439       .  S
C205        H206   1.080       .  S
C207        N208   1.353   1_556  A
C207        H217   1.080       .  S
N208        C209   1.356       .  A
N208        C392   1.433       .  S
C209        H215   1.082       .  S
C210        N211   1.356   1_556  A
C210        H212   1.081       .  S
N211        C213   1.357       .  A
N211        C312   1.435       .  S
C213        H214   1.076       .  S
C218        C220   1.535       .  S
C218        C222   1.547       .  S
C218        C221   1.545       .  S
C218        C251   1.536       .  S
C219        C223   1.549       .  S
C219        C225   1.544       .  S
C219        C224   1.530       .  S
C219        C267   1.534       .  S
C220        C228   1.378       .  A
C220        C223   1.396       .  A
C221        C232   1.382       .  A
C221        C224   1.395       .  A
C222        C236   1.380   1_565  A
C222        C225   1.401       .  A
C223        C226   1.384       .  A
C224        C230   1.374       .  A
C225        C233   1.380   1_565  A
C226        N227   1.361       .  A
C226        H239   1.080       .  S
N227        C228   1.359       .  A
N227        C296   1.443       .  S
C228        H229   1.082       .  S
C230        N231   1.354       .  A
C230        H240   1.083       .  S
N231        C232   1.358       .  A
N231        C376   1.432       .  S
C232        H238   1.079       .  S
C233        N234   1.361       .  A
C233        H235   1.081       .  S
N234        C236   1.360       .  A
N234        C280   1.443       .  S
C236        H237   1.081       .  S
C241        C246   1.383       .  A
C241        C242   1.410       .  A
C241        S247   1.713       .  A
C242        C243   1.410       .  A
C242        H253   1.083       .  S
C243        C252   1.382       .  A
C243        C244   1.383       .  A
C244        C245   1.406       .  A
C244        S250   1.708       .  A
C245        C246   1.406       .  A
C245        H254   1.083       .  S
C246        C249   1.378       .  A
S247        C248   1.734       .  A
C248        C249   1.395       .  A
C249        H255   1.078       .  S
S250        C251   1.731       .  A
C251        C252   1.397       .  A
C252        H256   1.081       .  S
C257        C262   1.383       .  A
C257        C258   1.410   1_565  A
C257        S263   1.709   1_565  A
C258        C259   1.409   1_545  A
C258        H269   1.083       .  S
C259        C268   1.382       .  A
C259        C260   1.383       .  A
C260        C261   1.407       .  A
C260        S266   1.707       .  A
C261        C262   1.406       .  A
C261        H270   1.083       .  S
C262        C265   1.380       .  A
S263        C264   1.734   1_545  A
C264        C265   1.395       .  A
C265        H271   1.081       .  S
S266        C267   1.731       .  A
C267        C268   1.397       .  A
C268        H272   1.082   1_565  S
C273        C278   1.387       .  A
C273        C274   1.405       .  A
C273        S279   1.710       .  A
C274        C275   1.405       .  A
C274        H285   1.083       .  S
C275        C284   1.375       .  A
C275        C276   1.387       .  A
C276        C277   1.404       .  A
C276        S282   1.709       .  A
C277        C278   1.404       .  A
C277        H286   1.083       .  S
C278        C281   1.375       .  A
S279        C280   1.727       .  A
C280        C281   1.390       .  A
C281        H287   1.082       .  S
S282        C283   1.727       .  A
C283        C284   1.391       .  A
C284        H288   1.082       .  S
C289        C294   1.387       .  A
C289        C290   1.405       .  A
C289        S295   1.710       .  A
C290        C291   1.405       .  A
C290        H301   1.083       .  S
C291        C300   1.376       .  A
C291        C292   1.387       .  A
C292        C293   1.404       .  A
C292        S298   1.709       .  A
C293        C294   1.404       .  A
C293        H302   1.083       .  S
C294        C297   1.374       .  A
S295        C296   1.726       .  A
C296        C297   1.390       .  A
C297        H303   1.082       .  S
S298        C299   1.727       .  A
C299        C300   1.390       .  A
C300        H304   1.082       .  S
C305        C310   1.387   1_556  A
C305        C306   1.400       .  A
C305        S311   1.707       .  A
C306        C307   1.402       .  A
C306        H317   1.083       .  S
C307        C316   1.367       .  A
C307        C308   1.387   1_556  A
C308        C309   1.396       .  A
C308        S314   1.701       .  A
C309        C310   1.398       .  A
C309        H318   1.083       .  S
C310        C313   1.363       .  A
S311        C312   1.725   1_556  A
C312        C313   1.386       .  A
C313        H319   1.082       .  S
S314        C315   1.723       .  A
C315        C316   1.388   1_554  A
C316        H320   1.082       .  S
C321        C326   1.386   1_554  A
C321        C322   1.403       .  A
C321        S327   1.709       .  A
C322        C323   1.404       .  A
C322        H333   1.083       .  S
C323        C332   1.369       .  A
C323        C324   1.386   1_554  A
C324        C325   1.396       .  A
C324        S330   1.702       .  A
C325        C326   1.398       .  A
C325        H334   1.083       .  S
C326        C329   1.364       .  A
S327        C328   1.727       .  A
C328        C329   1.387   1_554  A
C329        H335   1.081       .  S
S330        C331   1.723   1_556  A
C331        C332   1.391       .  A
C332        H336   1.081       .  S
C337        C342   1.384       .  A
C337        C338   1.408       .  A
C337        S343   1.710       .  A
C338        C339   1.408       .  A
C338        H349   1.083       .  S
C339        C348   1.379       .  A
C339        C340   1.383       .  A
C340        C341   1.411       .  A
C340        S346   1.715       .  A
C341        C342   1.410       .  A
C341        H350   1.082       .  S
C342        C345   1.383       .  A
S343        C344   1.732       .  A
C344        C345   1.397       .  A
C345        H351   1.082       .  S
S346        C347   1.733       .  A
C347        C348   1.396       .  A
C348        H352   1.080       .  S
C353        C358   1.384       .  A
C353        C354   1.404       .  A
C353        S359   1.705       .  A
C354        C355   1.404       .  A
C354        H365   1.083       .  S
C355        C364   1.376       .  A
C355        C356   1.383       .  A
C356        C357   1.412       .  A
C356        S362   1.716       .  A
C357        C358   1.412       .  A
C357        H366   1.083       .  S
C358        C361   1.384       .  A
S359        C360   1.730       .  A
C360        C361   1.398       .  A
C361        H367   1.082       .  S
S362        C363   1.734       .  A
C363        C364   1.394       .  A
C364        H368   1.080       .  S
C369        C374   1.388       .  A
C369        C370   1.403   1_565  A
C369        S375   1.708   1_565  A
C370        C371   1.403   1_545  A
C370        H381   1.083       .  S
C371        C380   1.373       .  A
C371        C372   1.388       .  A
C372        C373   1.398       .  A
C372        S378   1.699       .  A
C373        C374   1.398       .  A
C373        H382   1.083       .  S
C374        C377   1.367       .  A
S375        C376   1.724   1_545  A
C376        C377   1.383       .  A
C377        H383   1.083       .  S
S378        C379   1.721       .  A
C379        C380   1.387       .  A
C380        H384   1.083   1_565  S
C385        C390   1.388   1_556  A
C385        C386   1.399       .  A
C385        S391   1.702       .  A
C386        C387   1.399       .  A
C386        H397   1.083       .  S
C387        C396   1.369       .  A
C387        C388   1.387   1_566  A
C388        C389   1.404       .  A
C388        S394   1.709       .  A
C389        C390   1.404   1_545  A
C389        H398   1.083       .  S
C390        C393   1.374       .  A
S391        C392   1.721   1_556  A
C392        C393   1.387       .  A
C393        H399   1.083   1_565  S
S394        C395   1.725       .  A
C395        C396   1.385   1_544  A
C396        H400   1.083       .  S
C401        C406   1.388       .  A
C401        C402   1.398       .  A
C401        S407   1.704   1_455  A
C402        C403   1.400       .  A
C402        H413   1.083   1_455  S
C403        C412   1.365       .  A
C403        C404   1.389       .  A
C404        C405   1.397       .  A
C404        S410   1.704       .  A
C405        C406   1.400       .  A
C405        H414   1.083       .  S
C406        C409   1.365       .  A
S407        C408   1.717   1_655  A
C408        C409   1.382       .  A
C409        H415   1.084       .  S
S410        C411   1.716       .  A
C411        C412   1.380       .  A
C412        H416   1.084   1_455  S
C417        C422   1.388   1_655  A
C417        C418   1.398       .  A
C417        S423   1.701       .  A
C418        C419   1.399       .  A
C418        H429   1.083       .  S
C419        C428   1.366       .  A
C419        C420   1.388   1_655  A
C420        C421   1.398       .  A
C420        S426   1.704       .  A
C421        C422   1.400       .  A
C421        H430   1.083       .  S
C422        C425   1.367       .  A
S423        C424   1.718   1_655  A
C424        C425   1.382       .  A
C425        H431   1.084       .  S
S426        C427   1.717       .  A
C427        C428   1.380   1_455  A
C428        H432   1.083       .  S
C433        C438   1.387       .  A
C433        C434   1.402       .  A
C433        S439   1.707       .  A
C434        C435   1.402       .  A
C434        H445   1.083       .  S
C435        C444   1.372       .  A
C435        C436   1.387       .  A
C436        C437   1.406       .  A
C436        S442   1.714       .  A
C437        C438   1.407       .  A
C437        H446   1.083       .  S
C438        C441   1.376       .  A
S439        C440   1.723       .  A
C440        C441   1.391       .  A
C441        H447   1.083       .  S
S442        C443   1.726       .  A
C443        C444   1.387       .  A
C444        H448   1.083       .  S
C449        C454   1.388   1_554  A
C449        C450   1.401       .  A
C449        S455   1.707       .  A
C450        C451   1.402       .  A
C450        H461   1.083       .  S
C451        C460   1.370       .  A
C451        C452   1.387   1_554  A
C452        C453   1.402       .  A
C452        S458   1.707       .  A
C453        C454   1.403       .  A
C453        H462   1.083       .  S
C454        C457   1.370       .  A
S455        C456   1.722       .  A
C456        C457   1.387   1_554  A
C457        H463   1.083       .  S
S458        C459   1.724       .  A
C459        C460   1.386   1_556  A
C460        H464   1.083       .  S
C465        C470   1.388       .  A
C465        C466   1.398       .  A
C465        S471   1.702       .  A
C466        C467   1.400       .  A
C466        H477   1.083       .  S
C467        C476   1.366       .  A
C467        C468   1.389       .  A
C468        C469   1.397       .  A
C468        S474   1.703       .  A
C469        C470   1.399       .  A
C469        H478   1.083       .  S
C470        C473   1.365       .  A
S471        C472   1.718       .  A
C472        C473   1.381       .  A
C473        H479   1.084       .  S
S474        C475   1.716       .  A
C475        C476   1.380       .  A
C476        H480   1.083       .  S
C481        C486   1.388       .  A
C481        C482   1.400       .  A
C481        S487   1.706       .  A
C482        C483   1.401       .  A
C482        H493   1.083       .  S
C483        C492   1.369       .  A
C483        C484   1.388       .  A
C484        C485   1.398       .  A
C484        S490   1.702       .  A
C485        C486   1.399       .  A
C485        H494   1.083       .  S
C486        C489   1.366       .  A
S487        C488   1.719       .  A
C488        C489   1.382       .  A
C489        H495   1.084       .  S
S490        C491   1.717       .  A
C491        C492   1.382       .  A
C492        H496   1.083       .  S
C497        C502   1.388       .  A
C497        C498   1.402       .  A
C497        S503   1.707       .  A
C498        C499   1.403       .  A
C498        H509   1.083       .  S
C499        C508   1.371       .  A
C499        C500   1.388       .  A
C500        C501   1.397   1_545  A
C500        S506   1.700   1_545  A
C501        C502   1.398   1_565  A
C501        H510   1.083       .  S
C502        C505   1.365       .  A
S503        C504   1.723       .  A
C504        C505   1.383       .  A
C505        H511   1.083   1_545  S
S506        C507   1.721   1_565  A
C507        C508   1.386       .  A
C508        H512   1.083       .  S
C513        C518   1.384       .  A
C513        C514   1.402       .  A
C513        S519   1.701       .  A
C514        C515   1.402       .  A
C514        H525   1.083       .  S
C515        C524   1.373       .  A
C515        C516   1.383       .  A
C516        C517   1.412       .  A
C516        S522   1.714       .  A
C517        C518   1.411       .  A
C517        H526   1.082       .  S
C518        C521   1.384       .  A
S519        C520   1.728       .  A
C520        C521   1.398       .  A
C521        H527   1.082       .  S
S522        C523   1.735       .  A
C523        C524   1.391       .  A
C524        H528   1.078       .  S
C529        C534   1.383       .  A
C529        C530   1.410       .  A
C529        S535   1.708       .  A
C530        C531   1.408       .  A
C530        H541   1.082   1_545  S
C531        C540   1.383       .  A
C531        C532   1.383       .  A
C532        C533   1.404       .  A
C532        S538   1.701       .  A
C533        C534   1.403       .  A
C533        H542   1.082       .  S
C534        C537   1.378       .  A
S535        C536   1.735       .  A
C536        C537   1.392       .  A
C537        H543   1.075       .  S
S538        C539   1.729       .  A
C539        C540   1.396       .  A
C540        H544   1.082   1_545  S
C545        C550   1.386   1_554  A
C545        C546   1.401       .  A
C545        S551   1.708       .  A
C546        C547   1.402       .  A
C546        H557   1.083       .  S
C547        C556   1.370       .  A
C547        C548   1.387   1_554  A
C548        C549   1.404       .  A
C548        S554   1.712   1_545  A
C549        C550   1.406       .  A
C549        H558   1.083   1_545  S
C550        C553   1.372       .  A
S551        C552   1.724       .  A
C552        C553   1.392   1_554  A
C553        H559   1.082       .  S
S554        C555   1.724   1_565  A
C555        C556   1.386   1_556  A
C556        H560   1.083       .  S
C561        C566   1.387       .  A
C561        C562   1.399       .  A
C561        S567   1.704       .  A
C562        C563   1.400       .  A
C562        H573   1.083       .  S
C563        C572   1.367       .  A
C563        C564   1.387       .  A
C564        C565   1.403       .  A
C564        S570   1.709       .  A
C565        C566   1.404       .  A
C565        H574   1.083       .  S
C566        C569   1.372       .  A
S567        C568   1.724       .  A
C568        C569   1.389       .  A
C569        H575   1.083       .  S
S570        C571   1.726       .  A
C571        C572   1.386       .  A
C572        H576   1.083       .  S
C577        C582   1.387       .  A
C577        C578   1.400       .  A
C577        S583   1.701       .  A
C578        C579   1.400       .  A
C578        H589   1.083       .  S
C579        C588   1.370       .  A
C579        C580   1.387       .  A
C580        C581   1.400       .  A
C580        S586   1.700       .  A
C581        C582   1.400       .  A
C581        H590   1.083       .  S
C582        C585   1.370       .  A
S583        C584   1.727       .  A
C584        C585   1.387       .  A
C585        H591   1.082       .  S
S586        C587   1.726       .  A
C587        C588   1.387       .  A
C588        H592   1.082       .  S
C593        C598   1.387       .  A
C593        C594   1.402       .  A
C593        S599   1.706       .  A
C594        C595   1.403       .  A
C594        H605   1.083       .  S
C595        C604   1.372       .  A
C595        C596   1.388       .  A
C596        C597   1.399       .  A
C596        S602   1.703       .  A
C597        C598   1.399       .  A
C597        H606   1.083       .  S
C598        C601   1.367       .  A
S599        C600   1.726       .  A
C600        C601   1.386       .  A
C601        H607   1.082       .  S
S602        C603   1.720       .  A
C603        C604   1.386       .  A
C604        H608   1.083       .  S
C609        C614   1.386   1_554  A
C609        C610   1.401       .  A
C609        S615   1.708       .  A
C610        C611   1.403       .  A
C610        H621   1.083       .  S
C611        C620   1.368       .  A
C611        C612   1.386   1_554  A
C612        C613   1.402       .  A
C612        S618   1.710       .  A
C613        C614   1.403       .  A
C613        H622   1.083       .  S
C614        C617   1.369       .  A
S615        C616   1.725       .  A
C616        C617   1.390   1_554  A
C617        H623   1.082       .  S
S618        C619   1.725       .  A
C619        C620   1.390   1_556  A
C620        H624   1.082       .  S
C625        C630   1.386   1_554  A
C625        C626   1.403       .  A
C625        S631   1.711       .  A
C626        C627   1.405       .  A
C626        H637   1.083       .  S
C627        C636   1.371       .  A
C627        C628   1.387   1_554  A
C628        C629   1.399       .  A
C628        S634   1.706       .  A
C629        C630   1.401       .  A
C629        H638   1.083       .  S
C630        C633   1.367       .  A
S631        C632   1.726       .  A
C632        C633   1.388   1_554  A
C633        H639   1.082       .  S
S634        C635   1.725       .  A
C635        C636   1.390   1_556  A
C636        H640   1.082       .  S
C641        C646   1.384       .  A
C641        C642   1.410       .  A
C641        S647   1.709       .  A
C642        C643   1.408       .  A
C642        H653   1.083       .  S
C643        C652   1.385       .  A
C643        C644   1.384       .  A
C644        C645   1.407       .  A
C644        S650   1.704       .  A
C645        C646   1.406       .  A
C645        H654   1.083       .  S
C646        C649   1.381       .  A
S647        C648   1.733       .  A
C648        C649   1.395       .  A
C649        H655   1.081       .  S
S650        C651   1.733       .  A
C651        C652   1.396       .  A
C652        H656   1.081       .  S
C657        C662   1.383       .  A
C657        C658   1.408       .  A
C657        S663   1.713       .  A
C658        C659   1.408       .  A
C658        H669   1.083       .  S
C659        C668   1.377       .  A
C659        C660   1.383       .  A
C660        C661   1.409       .  A
C660        S666   1.715       .  A
C661        C662   1.410       .  A
C661        H670   1.083       .  S
C662        C665   1.379       .  A
S663        C664   1.731       .  A
C664        C665   1.396       .  A
C665        H671   1.082       .  S
S666        C667   1.731       .  A
C667        C668   1.396       .  A
C668        H672   1.081       .  S
C673        C678   1.387   1_554  A
C673        C674   1.404       .  A
C673        S679   1.707       .  A
C674        C675   1.404       .  A
C674        H685   1.083       .  S
C675        C684   1.376       .  A
C675        C676   1.387   1_554  A
C676        C677   1.406       .  A
C676        S682   1.709       .  A
C677        C678   1.405       .  A
C677        H686   1.083       .  S
C678        C681   1.378       .  A
S679        C680   1.727   1_554  A
C680        C681   1.390       .  A
C681        H687   1.082       .  S
S682        C683   1.725       .  A
C683        C684   1.388   1_556  A
C684        H688   1.083       .  S
