geometry optimzed in LAMMPS
_audit_creation_date              2020-11-30 
_audit_creation_method            'lammps2cif' 
_symmetry_space_group_name_H-M    'P1' 
_symmetry_Int_Tables_number       1 
_symmetry_cell_setting            triclinic 
loop_ 
_symmetry_equiv_pos_as_xyz 
  x,y,z 
_cell_length_a                    48.72701875 
_cell_length_b                    48.68610800185936 
_cell_length_c                    72.83430248486114 
_cell_angle_alpha                 90.03460154517646 
_cell_angle_beta                  89.96224369541864 
_cell_angle_gamma                 120.3977271264152 
loop_ 
_atom_site_label 
_atom_site_type_symbol 
_atom_site_fract_x 
_atom_site_fract_y 
_atom_site_fract_z 
_atom_site_charge 
N1          N  0.33422540  0.26910154  0.68391129    -0.27000
N2          N  0.36526499  0.28035577  0.68275487    -0.34900
C3          C  0.37316423  0.26343960  0.69379904     0.01300
C4          C  0.34601405  0.24019827  0.70229353     0.07300
C5          C  0.32163354  0.24436206  0.69576582    -0.05800
H6          H  0.39710387  0.26777922  0.69547781     0.08000
H7          H  0.29675220  0.23076458  0.69952004     0.09200
Cu8        Cu  0.39738786  0.31728003  0.66625163     0.44200
Cu9        Cu  0.31058461  0.28829097  0.66951112     0.42000
Cu10       Cu  0.36526640  0.35357920  0.63985333     0.43900
N11         N  0.42475061  0.35242899  0.64744240    -0.34400
N12         N  0.41238652  0.36620541  0.63757420    -0.28700
C13         C  0.43419280  0.38630141  0.62553341    -0.04800
C14         C  0.46170378  0.38515864  0.62800017     0.07400
C15         C  0.45490763  0.36329277  0.64192995     0.01200
H16         H  0.42980128  0.39939248  0.61508141     0.08900
H17         H  0.47011735  0.35475399  0.64699093     0.08000
N18         N  0.31729764  0.33754259  0.64205340    -0.35900
N19         N  0.29679649  0.31415148  0.65274328    -0.28100
C20         C  0.26774229  0.31086128  0.65041041    -0.03300
C21         C  0.27043547  0.33316325  0.63755664     0.05300
C22         C  0.30211992  0.34948358  0.63263716     0.03400
H23         H  0.24633920  0.29347718  0.65740754     0.08500
H24         H  0.31357009  0.36890979  0.62294950     0.07300
N25         N  0.91104411  0.27069266  0.68267994    -0.27000
N26         N  0.88953625  0.27916163  0.67965445    -0.34900
C27         C  0.86405488  0.26164135  0.69029881     0.01300
C28         C  0.86943457  0.24087047  0.70037969     0.07300
C29         C  0.89940155  0.24710245  0.69523293    -0.05800
H30         H  0.84315945  0.26403158  0.69072506     0.08000
H31         H  0.91215501  0.23599584  0.70057238     0.09200
Cu32       Cu  0.89398910  0.31400306  0.66166474     0.44200
Cu33       Cu  0.95598000  0.29270776  0.67052472     0.42000
Cu34       Cu  0.96920699  0.35983541  0.64215022     0.43900
N35         N  0.90415886  0.35079393  0.64374475    -0.34400
N36         N  0.93282270  0.36841538  0.63665584    -0.28700
C37         C  0.93258869  0.38955873  0.62491833    -0.04800
C38         C  0.90223415  0.38497335  0.62472731     0.07400
C39         C  0.88468775  0.36014906  0.63671934     0.01200
H40         H  0.95259676  0.40605911  0.61659658     0.08900
H41         H  0.85951578  0.34905074  0.63962234     0.08000
N42         N  0.00201572  0.34565111  0.64605298    -0.35900
N43         N  0.99798508  0.32126130  0.65609257    -0.28100
C44         C  0.02397424  0.31830966  0.65422445    -0.03300
C45         C  0.04491834  0.34190734  0.64232715     0.05300
C46         C  0.03016596  0.35867867  0.63754271     0.03400
H47         H  0.02687481  0.29980302  0.66050213     0.08500
H48         H  0.03878535  0.37849574  0.62810863     0.07300
N49         N  0.11994902  0.34760798  0.62866883    -0.27000
N50         N  0.11794616  0.36739498  0.61703163    -0.34900
C51         C  0.09126809  0.36802048  0.62033654     0.01300
C52         C  0.07531190  0.34762017  0.63466742     0.07300
C53         C  0.09404322  0.33488064  0.63967383    -0.05800
H54         H  0.08399924  0.38228941  0.61266696     0.08000
H55         H  0.08943185  0.31801365  0.65058546     0.09200
Cu56       Cu  0.14980996  0.39335238  0.59652281     0.44200
Cu57       Cu  0.15874918  0.34038413  0.62916347     0.42000
Cu58       Cu  0.21932727  0.39051782  0.59479307     0.43900
N59         N  0.18326269  0.41690873  0.57630191    -0.34400
N60         N  0.20996240  0.41624276  0.57575560    -0.28700
C61         C  0.22649081  0.43183788  0.56069374    -0.04800
C62         C  0.20906128  0.44259017  0.55124817     0.07400
C63         C  0.18180485  0.43276187  0.56157615     0.01200
H64         H  0.24876864  0.43389866  0.55651952     0.08900
H65         H  0.16188451  0.43586787  0.55831718     0.08000
N66         N  0.22418132  0.36176254  0.61387870    -0.35900
N67         N  0.20280583  0.34320869  0.62619479    -0.28100
C68         C  0.21533947  0.32906865  0.63641781    -0.03300
C69         C  0.24600088  0.33952941  0.63021293     0.05300
C70         C  0.25057893  0.36004438  0.61593718     0.03400
H71         H  0.20346721  0.31329157  0.64786539     0.08500
H72         H  0.27187471  0.37340684  0.60777514     0.07300
N73         N  0.99700809  0.68735020  0.65683795    -0.27000
N74         N  0.00032461  0.66732431  0.64609994    -0.34900
C75         C  0.02813431  0.68288033  0.63721919     0.01300
C76         C  0.04350426  0.71436178  0.64256379     0.07300
C77         C  0.02322747  0.71651404  0.65513192    -0.05800
H78         H  0.03624433  0.67198459  0.62730658     0.08000
H79         H  0.02675506  0.73776639  0.66200473     0.09200
Cu80       Cu  0.96715988  0.62002702  0.64249700     0.44200
Cu81       Cu  0.95533106  0.67289883  0.67188161     0.42000
Cu82       Cu  0.89402221  0.58731161  0.66556580     0.43900
N83         N  0.93124653  0.57403535  0.63806955    -0.34400
N84         N  0.90357300  0.56138103  0.64659423    -0.28700
C85         C  0.88417099  0.53211192  0.63967657    -0.04800
C86         C  0.90073071  0.52639849  0.62620014     0.07400
C87         C  0.93041763  0.55342723  0.62552589     0.01200
H88         H  0.85956246  0.51676806  0.64358243     0.08900
H89         H  0.94948901  0.55832045  0.61606503     0.08000
N90         N  0.88906225  0.61932315  0.68212026    -0.35900
N91         N  0.91034871  0.64994784  0.68420688    -0.28100
C92         C  0.89845690  0.66288140  0.69586027    -0.03300
C93         C  0.86849956  0.63923173  0.70140000     0.05300
C94         C  0.86341766  0.61203912  0.69245021     0.03400
H95         H  0.91106348  0.68743149  0.70036736     0.08500
H96         H  0.84267188  0.58846856  0.69352612     0.07300
N97         N  0.30263300  0.99212133  0.65682799    -0.27000
N98         N  0.32288230  0.98840674  0.64654209    -0.34900
C99         C  0.30746989  0.96033834  0.63787784     0.01300
C100        C  0.27585828  0.94523958  0.64290278     0.07300
C101        C  0.27348488  0.96593178  0.65505051    -0.05800
H102        H  0.31852532  0.95190129  0.62828465     0.08000
H103        H  0.25209090  0.96272517  0.66155375     0.09200
Cu104      Cu  0.37022548  0.02160370  0.64316607     0.44200
Cu105      Cu  0.31669427  0.03420614  0.67141618     0.42000
Cu106      Cu  0.40181476  0.09577948  0.66559213     0.43900
N107        N  0.41593334  0.05814296  0.63876689    -0.34400
N108        N  0.42798984  0.08612534  0.64691768    -0.28700
C109        C  0.45707551  0.10582286  0.63990703    -0.04800
C110        C  0.46334230  0.08912100  0.62680596     0.07400
C111        C  0.43681086  0.05906445  0.62640442     0.01200
H112        H  0.47188218  0.13069633  0.64347271     0.08900
H113        H  0.43235815  0.03981143  0.61718259     0.08000
N114        N  0.36967784  0.10040567  0.68213697    -0.35900
N115        N  0.33908238  0.07898452  0.68403476    -0.28100
C116        C  0.32594808  0.09049003  0.69581635    -0.03300
C117        C  0.34946643  0.12032635  0.70164476     0.05300
C118        C  0.37677024  0.12574765  0.69271541     0.03400
H119        H  0.30136981  0.07768088  0.70022901     0.08500
H120        H  0.40028769  0.14650441  0.69398320     0.07300
N121        N  0.20592909  0.86927401  0.63011972    -0.27000
N122        N  0.22678454  0.87240011  0.61741957    -0.34900
C123        C  0.25420103  0.89962823  0.62023175     0.01300
C124        C  0.25075529  0.91475006  0.63531562     0.07300
C125        C  0.21978883  0.89495927  0.64129210    -0.05800
H126        H  0.27513750  0.90786055  0.61173490     0.08000
H127        H  0.20839613  0.89863720  0.65302531     0.09200
Cu128      Cu  0.21939019  0.84139162  0.59605148     0.44200
Cu129      Cu  0.16031801  0.82928397  0.63199182     0.42000
Cu130      Cu  0.14725075  0.77097750  0.59572426     0.43900
N131        N  0.20735502  0.80900929  0.57486089    -0.34400
N132        N  0.17978724  0.78213998  0.57476018    -0.28700
C133        C  0.17736263  0.76598642  0.55927891    -0.04800
C134        C  0.20486590  0.78370010  0.54911552     0.07400
C135        C  0.22340317  0.81086503  0.55942713     0.01200
H136        H  0.15689389  0.74333881  0.55557934     0.08900
H137        H  0.24654002  0.83072536  0.55585770     0.08000
N138        N  0.11621293  0.76346533  0.61704162    -0.35900
N139        N  0.11971944  0.78412472  0.62996797    -0.28100
C140        C  0.09410111  0.77027380  0.64118086    -0.03300
C141        C  0.07395764  0.73950236  0.63497549     0.05300
C142        C  0.08880923  0.73617709  0.61972319     0.03400
H143        H  0.09074310  0.78149140  0.65311542     0.08500
H144        H  0.08034205  0.71537664  0.61106658     0.07300
N145        N  0.56135132  0.14730761  0.55700360    -0.36400
N146        N  0.51026621  0.12762658  0.58403118    -0.56900
N147        N  0.54127162  0.10419189  0.60812957    -0.36400
N148        N  0.59389187  0.12701309  0.58255658    -0.56900
C149        C  0.54609891  0.16195453  0.55034671     0.27200
C150        C  0.59118890  0.16269091  0.54995614     0.27200
C151        C  0.51788278  0.10117704  0.61941192     0.27200
C152        C  0.56206201  0.10026879  0.61844862     0.27200
C153        C  0.49747559  0.13536754  0.56991968     0.35800
C154        C  0.48674246  0.11233762  0.59651070     0.35800
C155        C  0.61422375  0.13595845  0.56823006     0.35800
C156        C  0.60250213  0.11113376  0.59423392     0.35800
C157        C  0.56618610  0.18628747  0.53855918    -0.21600
C158        C  0.59457411  0.18674857  0.53831725    -0.21600
C159        C  0.52364618  0.09483866  0.63711170    -0.21600
C160        C  0.55155585  0.09425299  0.63650170    -0.21600
C161        C  0.46578107  0.12512368  0.57349506    -0.22700
C162        C  0.45899156  0.11058034  0.59033592    -0.22700
C163        C  0.63587664  0.12581224  0.57081962    -0.16100
C164        C  0.62840216  0.11000276  0.58726980    -0.22700
C165        C  0.51467480  0.15422270  0.55469798    -0.18000
C166        C  0.61554994  0.15578930  0.55374363    -0.18000
C167        C  0.58913882  0.10002419  0.61178154    -0.18000
C168        C  0.49036623  0.10163948  0.61388751    -0.18000
H169        H  0.56133043  0.20268130  0.53122512     0.14900
H170        H  0.61553533  0.20346355  0.53071666     0.14900
H171        H  0.50903108  0.09059232  0.64916835     0.14900
H172        H  0.56260490  0.08952039  0.64800593     0.14900
H173        H  0.44936873  0.12823717  0.56497094     0.13100
H174        H  0.43631275  0.10032354  0.59732835     0.13100
H175        H  0.65537130  0.12985335  0.56191814     0.13100
H176        H  0.64112810  0.09959405  0.59357852     0.13100
H177        H  0.55125892  0.12668783  0.56488674     0.26400
H178        H  0.54103098  0.10497448  0.59391122     0.26400
N179        N  0.48663829  0.30401786  0.52465118    -0.27000
N180        N  0.48672872  0.28927251  0.53985399    -0.34900
C181        C  0.49614393  0.30969660  0.55399878     0.01300
C182        C  0.50243303  0.33885500  0.54744338     0.07300
C183        C  0.49634820  0.33460748  0.52875010    -0.05800
H184        H  0.49987163  0.30419814  0.56784002     0.08000
H185        H  0.49964253  0.35257404  0.51884246     0.09200
Cu186      Cu  0.47997729  0.24412435  0.54036112     0.44200
Cu187      Cu  0.47477921  0.28100656  0.49927170     0.42000
Cu188      Cu  0.47774794  0.20698493  0.49748843     0.43900
N189        N  0.48626497  0.20564028  0.53815677    -0.34400
N190        N  0.48729605  0.19270216  0.52241179    -0.28700
C191        C  0.49619787  0.17109123  0.52574316    -0.04800
C192        C  0.50073776  0.17054499  0.54450381     0.07400
C193        C  0.49425497  0.19272427  0.55188020     0.01200
H194        H  0.50021506  0.15770918  0.51529377     0.08900
H195        H  0.49706745  0.20033886  0.56605776     0.08000
N196        N  0.46191386  0.22380405  0.47612258    -0.35900
N197        N  0.46052639  0.25026047  0.47676341    -0.28100
C198        C  0.44679345  0.25253142  0.46123587    -0.03300
C199        C  0.43909880  0.22625397  0.45036519     0.05300
C200        C  0.44910839  0.20863950  0.46021472     0.03400
H201        H  0.44184992  0.27140321  0.45836099     0.08500
H202        H  0.44638268  0.18591626  0.45638721     0.07300
N203        N  0.56428945  0.42225770  0.56107450    -0.36400
N204        N  0.59654762  0.47617824  0.58620114    -0.56900
N205        N  0.54215679  0.44726477  0.61071927    -0.36400
N206        N  0.51102510  0.39211654  0.58668585    -0.56900
C207        C  0.59437879  0.43644139  0.55446758     0.27200
C208        C  0.54882952  0.39205308  0.55457684     0.27200
C209        C  0.56270057  0.47230053  0.62115787     0.27200
C210        C  0.51745122  0.42738079  0.62156187     0.27200
C211        C  0.61764509  0.48709674  0.57220029     0.35800
C212        C  0.60530282  0.50104736  0.59771748     0.35800
C213        C  0.49891263  0.37076640  0.57282480     0.35800
C214        C  0.48693361  0.38418911  0.59866009     0.35800
C215        C  0.59789970  0.41516727  0.54346267    -0.21600
C216        C  0.56917988  0.38718665  0.54352446    -0.21600
C217        C  0.55072824  0.46844180  0.63884921    -0.21600
C218        C  0.52221042  0.44008539  0.63911020    -0.21600
C219        C  0.64006773  0.51891434  0.57489807    -0.22700
C220        C  0.63233084  0.52773665  0.59105924    -0.22700
C221        C  0.46707976  0.34903895  0.57606040    -0.22700
C222        C  0.45950549  0.35746805  0.59242656    -0.22700
C223        C  0.61866650  0.46818297  0.55783234    -0.18000
C224        C  0.51677784  0.36880041  0.55814471    -0.18000
C225        C  0.48973556  0.39933425  0.61571604    -0.18000
C226        C  0.59070698  0.49952521  0.61478810    -0.18000
H227        H  0.61907704  0.41919982  0.53628428     0.14900
H228        H  0.56406516  0.36557639  0.53641847     0.14900
H229        H  0.56116081  0.48457363  0.65033451     0.14900
H230        H  0.50652413  0.43024657  0.65082835     0.14900
H231        H  0.66025343  0.53408733  0.56628156     0.13100
H232        H  0.64564668  0.55101919  0.59732749     0.13100
H233        H  0.45110445  0.32882993  0.56767932     0.13100
H234        H  0.43653204  0.34488550  0.59910255     0.13100
H235        H  0.55411370  0.43336084  0.56822463     0.26400
H236        H  0.54301992  0.44580231  0.59655876     0.26400
N237        N  0.68344194  0.49701961  0.52444467    -0.27000
N238        N  0.69811121  0.49712378  0.53971753    -0.34900
C239        C  0.67757537  0.48772667  0.55379736     0.01300
C240        C  0.64844762  0.48121394  0.54709459     0.07300
C241        C  0.65282448  0.48720819  0.52841282    -0.05800
H242        H  0.68309102  0.48455789  0.56774614     0.08000
H243        H  0.63503318  0.48417307  0.51845788     0.09200
Cu244      Cu  0.74360351  0.50484614  0.54045241     0.44200
Cu245      Cu  0.70664601  0.50951341  0.49920561     0.42000
Cu246      Cu  0.78198618  0.50963173  0.49752714     0.43900
N247        N  0.78288437  0.49990524  0.53810493    -0.34400
N248        N  0.79630220  0.49986867  0.52234002    -0.28700
C249        C  0.81850171  0.49172613  0.52553305    -0.04800
C250        C  0.81894367  0.48666249  0.54422472     0.07400
C251        C  0.79609485  0.49202576  0.55171265     0.01200
H252        H  0.83239789  0.48861146  0.51502578     0.08900
H253        H  0.78830178  0.48856194  0.56587033     0.08000
N254        N  0.76451897  0.52482212  0.47621256    -0.35900
N255        N  0.73746269  0.52501690  0.47681220    -0.28100
C256        C  0.73465552  0.53852593  0.46133748    -0.03300
C257        C  0.76122168  0.54731535  0.45054411     0.05300
C258        C  0.77957445  0.53820202  0.46037836     0.03400
H259        H  0.71519748  0.54255806  0.45845200     0.08500
H260        H  0.80266394  0.54187530  0.45658257     0.07300
N261        N  0.79558087  0.30569990  0.52211461    -0.27000
N262        N  0.78109824  0.29210323  0.53766787    -0.34900
C263        C  0.79364549  0.31341348  0.55134597     0.01300
C264        C  0.81708576  0.34187178  0.54406844     0.07300
C265        C  0.81771883  0.33627489  0.52548020    -0.05800
H266        H  0.78517124  0.30902374  0.56537546     0.08000
H267        H  0.83241647  0.35335544  0.51512918     0.09200
Cu268      Cu  0.74139073  0.24727199  0.53925115     0.44200
Cu269      Cu  0.78247350  0.28195099  0.49713042     0.42000
Cu270      Cu  0.70571313  0.20772444  0.49662305     0.43900
N271        N  0.69592244  0.20867512  0.53727410    -0.34400
N272        N  0.68203730  0.19488134  0.52162787    -0.28700
C273        C  0.65131418  0.17320559  0.52494912    -0.04800
C274        C  0.64592908  0.17343416  0.54359121     0.07400
C275        C  0.67464724  0.19613610  0.55095437     0.01200
H276        H  0.63407241  0.15895115  0.51456011     0.08900
H277        H  0.67934116  0.20400288  0.56509381     0.08000
N278        N  0.73647034  0.22511645  0.47434379    -0.35900
N279        N  0.76427624  0.25194537  0.47456305    -0.28100
C280        C  0.77920760  0.25502832  0.45850643    -0.03300
C281        C  0.75997181  0.22886079  0.44771039     0.05300
C282        C  0.73301614  0.21045439  0.45813237     0.03400
H283        H  0.80287216  0.27427960  0.45525889     0.08500
H284        H  0.71293464  0.18746997  0.45453173     0.07300
N285        N  0.84307734  0.42675286  0.55691093    -0.36400
N286        N  0.86330528  0.39482199  0.58288633    -0.56900
N287        N  0.88606170  0.44814633  0.60808928    -0.36400
N288        N  0.86275712  0.47856537  0.58358052    -0.56900
C289        C  0.82782362  0.39678500  0.55000229     0.27200
C290        C  0.82841568  0.44185256  0.55004511     0.27200
C291        C  0.88976657  0.42745808  0.61865341     0.27200
C292        C  0.88873151  0.47162847  0.61920027     0.27200
C293        C  0.85416008  0.37393587  0.56881249     0.35800
C294        C  0.87898063  0.38638686  0.59482433     0.35800
C295        C  0.85496853  0.49096372  0.56929277     0.35800
C296        C  0.87799561  0.50242820  0.59588105     0.35800
C297        C  0.80390512  0.39319892  0.53819765    -0.21600
C298        C  0.80426842  0.42156366  0.53822510    -0.21600
C299        C  0.89526299  0.43809688  0.63668616    -0.21600
C300        C  0.89458874  0.46599367  0.63703446    -0.21600
C301        C  0.86394352  0.35209221  0.57183843    -0.22700
C302        C  0.87978114  0.36004905  0.58827859    -0.22700
C303        C  0.86515872  0.52276407  0.57255958    -0.22700
C304        C  0.87972172  0.53002542  0.58939827    -0.22700
C305        C  0.83460321  0.37241987  0.55412035    -0.18000
C306        C  0.83591658  0.47329079  0.55425334    -0.18000
C307        C  0.88843660  0.49913882  0.61340978    -0.18000
C308        C  0.89015073  0.40028160  0.61226408    -0.18000
H309        H  0.78730184  0.37210169  0.53065127     0.14900
H310        H  0.78793417  0.42627630  0.53072349     0.14900
H311        H  0.89965390  0.42710484  0.64835729     0.14900
H312        H  0.89845628  0.48067738  0.64901607     0.14900
H313        H  0.85967051  0.33218106  0.56322756     0.13100
H314        H  0.88995976  0.34733465  0.59487251     0.13100
H315        H  0.86192215  0.53890771  0.56384581     0.13100
H316        H  0.88987062  0.55287482  0.59620633     0.13100
H317        H  0.86356206  0.43699723  0.56489410     0.26400
H318        H  0.88567252  0.44824203  0.59385508     0.26400
N319        N  0.71705484  0.07790504  0.68298806    -0.27000
N320        N  0.70893761  0.09966875  0.67987163    -0.34900
C321        C  0.72688340  0.12532340  0.69033127     0.01300
C322        C  0.74757615  0.11979406  0.70038261     0.07300
C323        C  0.74080877  0.08954080  0.69542721    -0.05800
H324        H  0.72487429  0.14646128  0.69063158     0.08000
H325        H  0.75173571  0.07663078  0.70079108     0.09200
Cu326      Cu  0.67424741  0.09543511  0.66182914     0.44200
Cu327      Cu  0.69476746  0.03281390  0.67086642     0.42000
Cu328      Cu  0.62987292  0.02084244  0.64110867     0.43900
N329        N  0.63828927  0.08564982  0.64334421    -0.34400
N330        N  0.62139583  0.05729319  0.63573236    -0.28700
C331        C  0.60066498  0.05773977  0.62377773    -0.04800
C332        C  0.60473341  0.08790491  0.62398705     0.07400
C333        C  0.62881797  0.10513137  0.63645649     0.01200
H334        H  0.58464717  0.03796259  0.61515138     0.08900
H335        H  0.63925087  0.13008238  0.63985383     0.08000
N336        N  0.64337794  0.98763623  0.64531521    -0.35900
N337        N  0.66694187  0.99110991  0.65591510    -0.28100
C338        C  0.66964970  0.96492958  0.65416135    -0.03300
C339        C  0.64675719  0.94447994  0.64175352     0.05300
C340        C  0.63065896  0.95971290  0.63655839     0.03400
H341        H  0.68750705  0.96154749  0.66089316     0.08500
H342        H  0.61147839  0.95155200  0.62671873     0.07300
N343        N  0.71952907  0.65500172  0.68365902    -0.27000
N344        N  0.70783666  0.62384894  0.68261935    -0.34900
C345        C  0.72450826  0.61568647  0.69370111     0.01300
C346        C  0.74805822  0.64277332  0.70210835     0.07300
C347        C  0.74429510  0.66738933  0.69549043    -0.05800
H348        H  0.71990811  0.59163466  0.69538675     0.08000
H349        H  0.75831930  0.69233433  0.69908503     0.09200
Cu350      Cu  0.67106033  0.59207841  0.66588496     0.44200
Cu351      Cu  0.70121630  0.67910339  0.66879698     0.42000
Cu352      Cu  0.64126334  0.62632915  0.63589783     0.43900
N353        N  0.63758280  0.56533168  0.64611897    -0.34400
N354        N  0.62650480  0.57859033  0.63481773    -0.28700
C355        C  0.60683447  0.55679646  0.62264495    -0.04800
C356        C  0.60549041  0.52835377  0.62647237     0.07400
C357        C  0.62539014  0.53457035  0.64139690     0.01200
H358        H  0.59562279  0.56166999  0.61129184     0.08900
H359        H  0.63167026  0.51842282  0.64775533     0.08000
N360        N  0.65603171  0.67384789  0.63894826    -0.35900
N361        N  0.67711541  0.69359796  0.65098768    -0.28100
C362        C  0.67902487  0.72220490  0.64941139    -0.03300
C363        C  0.65819443  0.71996128  0.63567894     0.05300
C364        C  0.64424836  0.68904471  0.62942074     0.03400
H365        H  0.69414198  0.74288183  0.65770387     0.08500
H366        H  0.62616996  0.67795376  0.61893548     0.07300
N367        N  0.64017721  0.86885728  0.62842132    -0.27000
N368        N  0.62123177  0.87140382  0.61639392    -0.34900
C369        C  0.62113582  0.89843949  0.61947940     0.01300
C370        C  0.64095455  0.91401193  0.63410222     0.07300
C371        C  0.65282106  0.89469849  0.63949028    -0.05800
H372        H  0.60754107  0.90615758  0.61150771     0.08000
H373        H  0.66903799  0.89887399  0.65069859     0.09200
Cu374      Cu  0.59550997  0.83956545  0.59578475     0.44200
Cu375      Cu  0.64672177  0.82964526  0.62918607     0.42000
Cu376      Cu  0.59802059  0.76962429  0.59426452     0.43900
N377        N  0.57208007  0.80594977  0.57558381    -0.34400
N378        N  0.57267923  0.77918581  0.57512682    -0.28700
C379        C  0.55730069  0.76265011  0.56002985    -0.04800
C380        C  0.54671534  0.78010773  0.55047324     0.07400
C381        C  0.55642587  0.80740474  0.56076426     0.01200
H382        H  0.55526851  0.74033739  0.55591990     0.08900
H383        H  0.55341743  0.82736639  0.55740827     0.08000
N384        N  0.62690397  0.76495216  0.61327134    -0.35900
N385        N  0.64484981  0.78608727  0.62585148    -0.28100
C386        C  0.65967072  0.77392729  0.63576754    -0.03300
C387        C  0.65037750  0.74379460  0.62903610     0.05300
C388        C  0.62974914  0.73910788  0.61481439     0.03400
H389        H  0.67538368  0.78579663  0.64723479     0.08500
H390        H  0.61718615  0.71815907  0.60627464     0.07300
O391        O  0.85244386  0.66812230  0.72094253    -0.72700
O392        O  0.79502556  0.67052342  0.76027993    -0.73700
O393        O  0.85291455  0.66853100  0.75998650    -0.62300
O394        O  0.79419522  0.67013891  0.72125846    -0.70700
O395        O  0.76689250  0.61728101  0.72170264    -0.70300
O396        O  0.82463624  0.61567928  0.75994060    -0.61500
O397        O  0.76783365  0.61764231  0.76035456    -0.74000
O398        O  0.82392272  0.61529460  0.72120767    -0.72800
Cu399      Cu  0.82469077  0.67128594  0.74059102     1.04600
Cu400      Cu  0.79489698  0.61473822  0.74078866     1.04300
C401        C  0.84729001  0.64113735  0.71507922     0.93500
C402        C  0.77226184  0.64419092  0.76641155     0.92600
C403        C  0.84792572  0.64168067  0.76595289     0.84800
C404        C  0.77094082  0.64366592  0.71561550     0.91100
O405        O  0.85176553  0.19606098  0.75930427    -0.72700
O406        O  0.79240772  0.13691868  0.72017147    -0.73700
O407        O  0.85204243  0.19614967  0.72029365    -0.62300
O408        O  0.79221538  0.13681249  0.75908842    -0.70700
O409        O  0.76680563  0.16394763  0.75888930    -0.70300
O410        O  0.82542170  0.22208080  0.72034772    -0.61500
O411        O  0.76706920  0.16412184  0.72020496    -0.74000
O412        O  0.82506671  0.22190396  0.75907027    -0.72800
Cu413      Cu  0.82309184  0.16551152  0.73971012     1.04600
Cu414      Cu  0.79525386  0.19390164  0.73962619     1.04300
C415        C  0.84759453  0.21840169  0.76526375     0.93500
C416        C  0.77020075  0.14123675  0.71419480     0.92600
C417        C  0.84804114  0.21856181  0.71431007     0.84800
C418        C  0.76992097  0.14109123  0.76495306     0.91100
O419        O  0.31980239  0.13555330  0.76043125    -0.72700
O420        O  0.31842844  0.19427861  0.72158319    -0.73700
O421        O  0.32038953  0.13600865  0.72132155    -0.62300
O422        O  0.31787541  0.19358048  0.76062630    -0.70700
O423        O  0.37071187  0.22071923  0.76070108    -0.70300
O424        O  0.37317136  0.16451687  0.72172204    -0.61500
O425        O  0.37124931  0.22147450  0.72208381    -0.74000
O426        O  0.37260746  0.16391105  0.76045416    -0.72800
Cu427      Cu  0.31714831  0.16379475  0.74096864     1.04600
Cu428      Cu  0.37365168  0.19356596  0.74123629     1.04300
C429        C  0.34662309  0.14061884  0.76646410     0.93500
C430        C  0.34494272  0.21743029  0.71592215     0.92600
C431        C  0.34739492  0.14123285  0.71548428     0.84800
C432        C  0.34421041  0.21636675  0.76673881     0.91100
N433        N  0.33255404  0.26709557  0.79896444    -0.27000
N434        N  0.36335698  0.27763549  0.80084785    -0.34900
C435        C  0.37152728  0.26073164  0.78995846     0.01300
C436        C  0.34479426  0.23831470  0.78076981     0.07300
C437        C  0.32037354  0.24284709  0.78678097    -0.05800
H438        H  0.39542863  0.26478871  0.78868239     0.08000
H439        H  0.29583630  0.23007712  0.78230275     0.09200
Cu440      Cu  0.39502053  0.31453057  0.81748509     0.44200
Cu441      Cu  0.30884545  0.28706493  0.81249508     0.42000
Cu442      Cu  0.36322636  0.35272476  0.84235502     0.43900
N443        N  0.42267091  0.35108025  0.83544607    -0.34400
N444        N  0.41051968  0.36567394  0.84475132    -0.28700
C445        C  0.43264472  0.38678248  0.85630427    -0.04800
C446        C  0.46012478  0.38544563  0.85407909     0.07400
C447        C  0.45294666  0.36237669  0.84083836     0.01200
H448        H  0.42849689  0.40070381  0.86632083     0.08900
H449        H  0.46798365  0.35333462  0.83620773     0.08000
N450        N  0.31530902  0.33694904  0.83945349    -0.35900
N451        N  0.29501779  0.31354806  0.82868339    -0.28100
C452        C  0.26599308  0.31052994  0.83058786    -0.03300
C453        C  0.26845143  0.33301264  0.84324969     0.05300
C454        C  0.29998786  0.34916144  0.84848945     0.03400
H455        H  0.24473580  0.29311369  0.82349209     0.08500
H456        H  0.31122401  0.36860648  0.85818536     0.07300
N457        N  0.91007436  0.27095891  0.79709218    -0.27000
N458        N  0.88890774  0.28010919  0.79941538    -0.34900
C459        C  0.86356476  0.26232190  0.78873413     0.01300
C460        C  0.86870500  0.24076765  0.77929437     0.07300
C461        C  0.89836948  0.24674132  0.78492058    -0.05800
H462        H  0.84300910  0.26521236  0.78774103     0.08000
H463        H  0.91096064  0.23513065  0.78008443     0.09200
Cu464      Cu  0.89364668  0.31635152  0.81643879     0.44200
Cu465      Cu  0.95486229  0.29315775  0.80947641     0.42000
Cu466      Cu  0.96874295  0.36215777  0.83612490     0.43900
N467        N  0.90337632  0.35238688  0.83496474    -0.34400
N468        N  0.93197205  0.36982111  0.84216899    -0.28700
C469        C  0.93139424  0.38987621  0.85461613    -0.04800
C470        C  0.90087062  0.38475029  0.85521142     0.07400
C471        C  0.88360118  0.36085173  0.84262009     0.01200
H472        H  0.95135996  0.40610354  0.86305046     0.08900
H473        H  0.85845591  0.34983548  0.83967209     0.08000
N474        N  0.00138634  0.34760935  0.83301024    -0.35900
N475        N  0.99706506  0.32250011  0.82359025    -0.28100
C476        C  0.02277054  0.31924584  0.82597157    -0.03300
C477        C  0.04377253  0.34331946  0.83760399     0.05300
C478        C  0.02940259  0.36074318  0.84168678     0.03400
H479        H  0.02533602  0.30010458  0.82033036     0.08500
H480        H  0.03813236  0.38099953  0.85081020     0.07300
N481        N  0.11815913  0.34848231  0.85196158    -0.27000
N482        N  0.11560388  0.36761061  0.86389469    -0.34900
C483        C  0.08897456  0.36828903  0.86045275     0.01300
C484        C  0.07368351  0.34861550  0.84573414     0.07300
C485        C  0.09269152  0.33624463  0.84065970    -0.05800
H486        H  0.08132127  0.38215434  0.86823710     0.08000
H487        H  0.08865456  0.32008190  0.82942556     0.09200
Cu488      Cu  0.14681848  0.39291721  0.88482023     0.44200
Cu489      Cu  0.15700261  0.34128640  0.85113348     0.42000
Cu490      Cu  0.21596111  0.38904373  0.88612806     0.43900
N491        N  0.18039230  0.41573185  0.90508277    -0.34400
N492        N  0.20675261  0.41441500  0.90549412    -0.28700
C493        C  0.22372902  0.43002438  0.92041595    -0.04800
C494        C  0.20706222  0.44163433  0.92987597     0.07400
C495        C  0.17967340  0.43215339  0.91975139     0.01200
H496        H  0.24600584  0.43188020  0.92436300     0.08900
H497        H  0.16029748  0.43612812  0.92302830     0.08000
N498        N  0.22169192  0.36129566  0.86673077    -0.35900
N499        N  0.20075341  0.34340822  0.85406850    -0.28100
C500        C  0.21350720  0.32949755  0.84378932    -0.03300
C501        C  0.24388695  0.33945931  0.85034140     0.05300
C502        C  0.24803798  0.35943246  0.86485480     0.03400
H503        H  0.20197831  0.31417219  0.83212016     0.08500
H504        H  0.26897511  0.37223235  0.87336009     0.07300
N505        N  0.56203932  0.14548910  0.92309830    -0.36400
N506        N  0.50952779  0.12460840  0.89688121    -0.56900
N507        N  0.53989548  0.10160248  0.87213039    -0.36400
N508        N  0.59395397  0.12547474  0.89685313    -0.56900
C509        C  0.54710072  0.16042925  0.92985913     0.27200
C510        C  0.59207156  0.16083945  0.92987700     0.27200
C511        C  0.51588150  0.09819314  0.86126537     0.27200
C512        C  0.56057738  0.09828938  0.86132683     0.27200
C513        C  0.49763620  0.13341551  0.91096629     0.35800
C514        C  0.48552357  0.10934954  0.88470256     0.35800
C515        C  0.61491530  0.13459927  0.91087007     0.35800
C516        C  0.60252879  0.11014208  0.88471022     0.35800
C517        C  0.56751057  0.18478364  0.94152344    -0.21600
C518        C  0.59582306  0.18505933  0.94152620    -0.21600
C519        C  0.52111906  0.09215039  0.84338352    -0.21600
C520        C  0.54934402  0.09220031  0.84342182    -0.21600
C521        C  0.46598977  0.12377487  0.90772088    -0.22700
C522        C  0.45830130  0.10850213  0.89109472    -0.22700
C523        C  0.63691468  0.12508271  0.90760290    -0.22700
C524        C  0.62905617  0.10957093  0.89104191    -0.22700
C525        C  0.51573803  0.15311128  0.92567144    -0.18000
C526        C  0.61640798  0.15401245  0.92568847    -0.18000
C527        C  0.58833308  0.09878851  0.86735676    -0.18000
C528        C  0.48846460  0.09844209  0.86725119    -0.18000
H529        H  0.56284535  0.20126581  0.94893556     0.14900
H530        H  0.61702099  0.20186705  0.94890776     0.14900
H531        H  0.50603140  0.08782614  0.83155310     0.14900
H532        H  0.56019235  0.08794723  0.83161803     0.14900
H533        H  0.45028341  0.12797013  0.91626032     0.13100
H534        H  0.43549701  0.09866536  0.88429851     0.13100
H535        H  0.65688917  0.12934525  0.91612089     0.13100
H536        H  0.64185543  0.09963493  0.88426312     0.13100
H537        H  0.55173218  0.12484158  0.91523130     0.26400
H538        H  0.54030145  0.10238240  0.88635885     0.26400
N539        N  0.79389902  0.30528460  0.95796208    -0.27000
N540        N  0.78069627  0.29097938  0.94229316    -0.34900
C541        C  0.79305836  0.31220879  0.92856073     0.01300
C542        C  0.81505246  0.34132728  0.93590674     0.07300
C543        C  0.81500982  0.33617967  0.95459996    -0.05800
H544        H  0.78549501  0.30719978  0.91438393     0.08000
H545        H  0.82865728  0.35371181  0.96500148     0.09200
Cu546      Cu  0.74261511  0.24502226  0.94042833     0.44200
Cu547      Cu  0.78080206  0.28203392  0.98310336     0.42000
Cu548      Cu  0.70591000  0.20653359  0.98298425     0.43900
N549        N  0.69702059  0.20632711  0.94220724    -0.34400
N550        N  0.68284522  0.19289699  0.95786051    -0.28700
C551        C  0.65210559  0.17136000  0.95450031    -0.04800
C552        C  0.64690040  0.17131781  0.93582035     0.07400
C553        C  0.67583407  0.19372986  0.92847849     0.01200
H554        H  0.63466424  0.15755591  0.96490738     0.08900
H555        H  0.68068653  0.20149161  0.91432768     0.08000
N556        N  0.73592125  0.22432653  0.00551017    -0.35900
N557        N  0.76317869  0.25171932  0.00557824    -0.28100
C558        C  0.77786986  0.25495696  0.02174371    -0.03300
C559        C  0.75899282  0.22828942  0.03229657     0.05300
C560        C  0.73255515  0.20944430  0.02161299     0.03400
H561        H  0.80111135  0.27470493  0.02524953     0.08500
H562        H  0.71288078  0.18606793  0.02497766     0.07300
N563        N  0.71646868  0.07773469  0.79600997    -0.27000
N564        N  0.70750774  0.09901029  0.79854992    -0.34900
C565        C  0.72559214  0.12468092  0.78815208     0.01300
C566        C  0.74714694  0.11962698  0.77868356     0.07300
C567        C  0.74084516  0.08967465  0.78396663    -0.05800
H568        H  0.72296104  0.14543040  0.78741193     0.08000
H569        H  0.75243609  0.07711812  0.77903678     0.09200
Cu570      Cu  0.67131878  0.09409951  0.81558666     0.44200
Cu571      Cu  0.69422989  0.03277001  0.80819439     0.42000
Cu572      Cu  0.62552815  0.01882119  0.83510418     0.43900
N573        N  0.63545775  0.08431469  0.83417410    -0.34400
N574        N  0.61802844  0.05565478  0.84132513    -0.28700
C575        C  0.59819728  0.05624450  0.85391222    -0.04800
C576        C  0.60345650  0.08683477  0.85463985     0.07400
C577        C  0.62719841  0.10413985  0.84198601     0.01200
H578        H  0.58204499  0.03624039  0.86235415     0.08900
H579        H  0.63826827  0.12933549  0.83910780     0.08000
N580        N  0.64067672  0.98658100  0.83234537    -0.35900
N581        N  0.66565654  0.99092979  0.82279861    -0.28100
C582        C  0.66962523  0.96572954  0.82559071    -0.03300
C583        C  0.64618130  0.94505415  0.83763702     0.05300
C584        C  0.62835850  0.95906454  0.84153030     0.03400
H585        H  0.68889969  0.96337746  0.81998332     0.08500
H586        H  0.60843375  0.95048857  0.85088287     0.07300
N587        N  0.72237496  0.65648431  0.79893768    -0.27000
N588        N  0.71156009  0.62558570  0.80080866    -0.34900
C589        C  0.72803818  0.61712486  0.78975332     0.01300
C590        C  0.75047509  0.64375369  0.78049170     0.07300
C591        C  0.74638478  0.66841070  0.78661279    -0.05800
H592        H  0.72373965  0.59311696  0.78846028     0.08000
H593        H  0.75935356  0.69297229  0.78214840     0.09200
Cu594      Cu  0.67496143  0.59405027  0.81769094     0.44200
Cu595      Cu  0.70328120  0.68088896  0.81266832     0.42000
Cu596      Cu  0.63792286  0.62659947  0.84263976     0.43900
N597        N  0.63829617  0.56652837  0.83564277    -0.34400
N598        N  0.62410294  0.57904247  0.84499273    -0.28700
C599        C  0.60278488  0.55704890  0.85652661    -0.04800
C600        C  0.60355387  0.52924528  0.85425270     0.07400
C601        C  0.62650714  0.53611528  0.84098297     0.01200
H602        H  0.58914226  0.56149721  0.86658451     0.08900
H603        H  0.63516115  0.52076437  0.83631690     0.08000
N604        N  0.65402405  0.67464819  0.83998225    -0.35900
N605        N  0.67728019  0.69496515  0.82914728    -0.28100
C606        C  0.68041799  0.72404887  0.83121785    -0.03300
C607        C  0.65817452  0.72157899  0.84406487     0.05300
C608        C  0.64205429  0.68999138  0.84923212     0.03400
H609        H  0.69773696  0.74534770  0.82410436     0.08500
H610        H  0.62274481  0.67871871  0.85900228     0.07300
N611        N  0.64269456  0.87182637  0.85290865    -0.27000
N612        N  0.62397684  0.87469312  0.86499480    -0.34900
C613        C  0.62290510  0.90107057  0.86132533     0.01300
C614        C  0.64184195  0.91582572  0.84626524     0.07300
C615        C  0.65423519  0.89680609  0.84125150    -0.05800
H616        H  0.60912070  0.90881247  0.86911152     0.08000
H617        H  0.66980364  0.90040856  0.82977023     0.09200
Cu618      Cu  0.59926628  0.84381519  0.88616882     0.44200
Cu619      Cu  0.64997388  0.83301793  0.85229816     0.42000
Cu620      Cu  0.60342440  0.77456330  0.88788332     0.43900
N621        N  0.57665839  0.81045557  0.90657007    -0.34400
N622        N  0.57815340  0.78417261  0.90719669    -0.28700
C623        C  0.56240665  0.76732218  0.92213290    -0.04800
C624        C  0.55050136  0.78396924  0.93135621     0.07400
C625        C  0.55997413  0.81122604  0.92108643     0.01200
H626        H  0.56048254  0.74504537  0.92619786     0.08900
H627        H  0.55567079  0.83048400  0.92411470     0.08000
N628        N  0.63051458  0.76848274  0.86810645    -0.35900
N629        N  0.64796877  0.78930758  0.85527850    -0.28100
C630        C  0.66156397  0.77648130  0.84479224    -0.03300
C631        C  0.65186776  0.74615381  0.85135806     0.05300
C632        C  0.63233892  0.74209540  0.86610470     0.03400
H633        H  0.67648145  0.78792502  0.83296839     0.08500
H634        H  0.61983830  0.72119933  0.87468765     0.07300
N635        N  0.84069547  0.42612010  0.92285514    -0.36400
N636        N  0.86151038  0.39433039  0.89705030    -0.56900
N637        N  0.88551554  0.44835927  0.87221574    -0.36400
N638        N  0.86150902  0.47853405  0.89649109    -0.56900
C639        C  0.82529826  0.39606268  0.92964720     0.27200
C640        C  0.82561326  0.44102544  0.92944577     0.27200
C641        C  0.88966180  0.42794398  0.86163171     0.27200
C642        C  0.88941265  0.47252559  0.86129200     0.27200
C643        C  0.85211584  0.37334249  0.91107624     0.35800
C644        C  0.87709063  0.38578299  0.88507945     0.35800
C645        C  0.85270012  0.49050697  0.91053950     0.35800
C646        C  0.87709904  0.50260514  0.88437625     0.35800
C647        C  0.80081370  0.39222258  0.94107095    -0.21600
C648        C  0.80101654  0.42052109  0.94094680    -0.21600
C649        C  0.89680408  0.43953276  0.84381663    -0.21600
C650        C  0.89664565  0.46767505  0.84360360    -0.21600
C651        C  0.86174308  0.35136733  0.90799976    -0.22700
C652        C  0.87755884  0.35924415  0.89153838    -0.22700
C653        C  0.86258065  0.52224245  0.90730769    -0.22700
C654        C  0.87800277  0.52990246  0.89073292    -0.22700
C655        C  0.83237060  0.37179868  0.92571034    -0.18000
C656        C  0.83314078  0.47250574  0.92532202    -0.18000
C657        C  0.88866380  0.49980456  0.86709927    -0.18000
C658        C  0.88887565  0.40005832  0.86778160    -0.18000
H659        H  0.78392278  0.37098247  0.94840038     0.14900
H660        H  0.78433268  0.42510675  0.94817386     0.14900
H661        H  0.90191782  0.42898954  0.83218943     0.14900
H662        H  0.90165801  0.48298304  0.83179417     0.14900
H663        H  0.85735246  0.33138932  0.91657058     0.13100
H664        H  0.88766618  0.34646895  0.88491655     0.13100
H665        H  0.85858939  0.53808504  0.91585751     0.13100
H666        H  0.88816341  0.55281489  0.88400845     0.13100
H667        H  0.86154282  0.43653792  0.91517871     0.26400
H668        H  0.88376619  0.44766092  0.88640615     0.26400
N669        N  0.79510851  0.50093633  0.95723101    -0.27000
N670        N  0.78079038  0.50004032  0.94165880    -0.34900
C671        C  0.79299114  0.49098402  0.92802588     0.01300
C672        C  0.81609683  0.48583359  0.93534394     0.07300
C673        C  0.81689147  0.49227696  0.95391711    -0.05800
H674        H  0.78451860  0.48683483  0.91399988     0.08000
H675        H  0.83145267  0.48990791  0.96428086     0.09200
Cu676      Cu  0.74185328  0.50576056  0.93997067     0.44200
Cu677      Cu  0.78207083  0.51210629  0.98202545     0.42000
Cu678      Cu  0.70580553  0.51073644  0.98168857     0.43900
N679        N  0.69692945  0.49963722  0.94116125    -0.34400
N680        N  0.68270784  0.49985323  0.95656673    -0.28700
C681        C  0.65232329  0.49119583  0.95282422    -0.04800
C682        C  0.64758302  0.48558149  0.93414167     0.07400
C683        C  0.67625277  0.49107626  0.92720694     0.01200
H684        H  0.63481264  0.48828249  0.96296296     0.08900
H685        H  0.68122357  0.48744875  0.91321863     0.08000
N686        N  0.73731267  0.52613946  0.00358242    -0.35900
N687        N  0.76468750  0.52655458  0.00374273    -0.28100
C688        C  0.78002605  0.53992541  0.01950688    -0.03300
C689        C  0.76150914  0.54842862  0.02967987     0.05300
C690        C  0.73460059  0.53929434  0.01920867     0.03400
H691        H  0.80340132  0.54407611  0.02299916     0.08500
H692        H  0.71492170  0.54283057  0.02241298     0.07300
N693        N  0.56360705  0.42529151  0.92074471    -0.36400
N694        N  0.51042071  0.39391631  0.89511264    -0.56900
N695        N  0.54024746  0.44879206  0.87098675    -0.36400
N696        N  0.59472237  0.47890114  0.89535843    -0.56900
C697        C  0.54888414  0.39513455  0.92727614     0.27200
C698        C  0.59365060  0.44026928  0.92741553     0.27200
C699        C  0.51591314  0.42812004  0.86018077     0.27200
C700        C  0.56086957  0.47332965  0.86027015     0.27200
C701        C  0.49887907  0.37268382  0.90902897     0.35800
C702        C  0.48592666  0.38561983  0.88340959     0.35800
C703        C  0.61571334  0.49052290  0.90938640     0.35800
C704        C  0.60285284  0.50348671  0.88373001     0.35800
C705        C  0.56953842  0.39117609  0.93856708    -0.21600
C706        C  0.59777289  0.41962236  0.93864282    -0.21600
C707        C  0.52098663  0.43978018  0.84237800    -0.21600
C708        C  0.54936857  0.46831432  0.84243272    -0.21600
C709        C  0.46702914  0.35066312  0.90610925    -0.22700
C710        C  0.45879444  0.35886887  0.88990142    -0.22700
C711        C  0.63737114  0.52254155  0.90663393    -0.22700
C712        C  0.62923456  0.53077322  0.89040043    -0.22700
C713        C  0.51727935  0.37107639  0.92346306    -0.18000
C714        C  0.61744726  0.47209270  0.92378191    -0.18000
C715        C  0.58853079  0.50108296  0.86646473    -0.18000
C716        C  0.48827866  0.40024417  0.86625940    -0.18000
H717        H  0.56497958  0.36985232  0.94579193     0.14900
H718        H  0.61906544  0.42430629  0.94592442     0.14900
H719        H  0.50563734  0.42907327  0.83061202     0.14900
H720        H  0.56006153  0.48380866  0.83071632     0.14900
H721        H  0.45147978  0.33046659  0.91462424     0.13100
H722        H  0.43563783  0.34606935  0.88345704     0.13100
H723        H  0.65731362  0.53821209  0.91526648     0.13100
H724        H  0.64187392  0.55404384  0.88405950     0.13100
H725        H  0.55303225  0.43573850  0.91335920     0.26400
H726        H  0.54073001  0.44816763  0.88521386     0.26400
N727        N  0.48786561  0.30462947  0.95556670    -0.27000
N728        N  0.49045335  0.29139162  0.94031424    -0.34900
C729        C  0.50024643  0.31269086  0.92662761     0.01300
C730        C  0.50410055  0.34074094  0.93358060     0.07300
C731        C  0.49623851  0.33502863  0.95199347    -0.05800
H732        H  0.50551551  0.30849031  0.91282721     0.08000
H733        H  0.49714039  0.35180905  0.96206255     0.09200
Cu734      Cu  0.48509345  0.24677407  0.93898895     0.44200
Cu735      Cu  0.47381561  0.28015003  0.98027031     0.42000
Cu736      Cu  0.47247811  0.20387119  0.98071086     0.43900
N737        N  0.48964003  0.20716140  0.94098369    -0.34400
N738        N  0.48634718  0.19174071  0.95649868    -0.28700
C739        C  0.49436548  0.16935927  0.95355847    -0.04800
C740        C  0.50287213  0.17093510  0.93528343     0.07400
C741        C  0.49961022  0.19509617  0.92775133     0.01200
H742        H  0.49466851  0.15368619  0.96397329     0.08900
H743        H  0.50540388  0.20416267  0.91386994     0.08000
N744        N  0.45626833  0.22045171  0.00201044    -0.35900
N745        N  0.45667287  0.24784540  0.00182565    -0.28100
C746        C  0.44279531  0.25021696  0.01724329    -0.03300
C747        C  0.43320200  0.22306667  0.02761101     0.05300
C748        C  0.44216765  0.20475919  0.01757398     0.03400
H749        H  0.43930653  0.26994486  0.02043355     0.08500
H750        H  0.43807471  0.18139009  0.02108304     0.07300
N751        N  0.99427044  0.69063828  0.82745050    -0.27000
N752        N  0.99781765  0.67037645  0.83782191    -0.34900
C753        C  0.02508543  0.68600028  0.84718146     0.01300
C754        C  0.03982875  0.71774133  0.84253198     0.07300
C755        C  0.01980040  0.72003816  0.82988052    -0.05800
H756        H  0.03336442  0.67489832  0.85682900     0.08000
H757        H  0.02309295  0.74144802  0.82334178     0.09200
Cu758      Cu  0.96604831  0.62250572  0.84024070     0.44200
Cu759      Cu  0.95359938  0.67612008  0.81157718     0.42000
Cu760      Cu  0.89497121  0.58919187  0.81585145     0.43900
N761        N  0.93138063  0.57574066  0.84359742    -0.34400
N762        N  0.90421683  0.56282612  0.83455178    -0.28700
C763        C  0.88507607  0.53307891  0.84087643    -0.04800
C764        C  0.90131922  0.52730344  0.85450174     0.07400
C765        C  0.93052099  0.55481866  0.85590056     0.01200
H766        H  0.86074938  0.51748638  0.83655096     0.08900
H767        H  0.94906094  0.55985672  0.86578012     0.08000
N768        N  0.88970692  0.62096991  0.79937996    -0.35900
N769        N  0.91000081  0.65197158  0.79795020    -0.28100
C770        C  0.89805744  0.66447835  0.78606915    -0.03300
C771        C  0.86910311  0.64015620  0.77973109     0.05300
C772        C  0.86462958  0.61302595  0.78843430     0.03400
H773        H  0.90987488  0.68927943  0.78208061     0.08500
H774        H  0.84463943  0.58909620  0.78685229     0.07300
N775        N  0.29914055  0.99234022  0.82592095    -0.27000
N776        N  0.31967477  0.98821158  0.83563724    -0.34900
C777        C  0.30430932  0.96041657  0.84453872     0.01300
C778        C  0.27244049  0.94598894  0.84030491     0.07300
C779        C  0.26981561  0.96671256  0.82834010    -0.05800
H780        H  0.31559421  0.95179227  0.85382029     0.08000
H781        H  0.24819934  0.96397605  0.82244045     0.09200
Cu782      Cu  0.36730125  0.02057832  0.83845036     0.44200
Cu783      Cu  0.31313494  0.03413987  0.81123688     0.42000
Cu784      Cu  0.39954919  0.09391228  0.81628264     0.43900
N785        N  0.41334867  0.05615251  0.84292695    -0.34400
N786        N  0.42586958  0.08406217  0.83468593    -0.28700
C787        C  0.45523325  0.10328041  0.84147682    -0.04800
C788        C  0.46115199  0.08632773  0.85457227     0.07400
C789        C  0.43412349  0.05663129  0.85519289     0.01200
H790        H  0.47049088  0.12802175  0.83777653     0.08900
H791        H  0.42934096  0.03733796  0.86445212     0.08000
N792        N  0.36761040  0.09908739  0.79991243    -0.35900
N793        N  0.33675679  0.07841012  0.79826515    -0.28100
C794        C  0.32410972  0.09026481  0.78641950    -0.03300
C795        C  0.34819823  0.11954665  0.78030821     0.05300
C796        C  0.37532556  0.12431873  0.78912769     0.03400
H797        H  0.29943072  0.07807861  0.78220626     0.08500
H798        H  0.39913289  0.14455036  0.78766057     0.07300
N799        N  0.20280978  0.87090740  0.85415517    -0.27000
N800        N  0.22400431  0.87417087  0.86663085    -0.34900
C801        C  0.25135229  0.90131303  0.86352637     0.01300
C802        C  0.24744443  0.91611770  0.84845145     0.07300
C803        C  0.21632207  0.89633513  0.84282029    -0.05800
H804        H  0.27262841  0.90955691  0.87170495     0.08000
H805        H  0.20464598  0.89971636  0.83113804     0.09200
Cu806      Cu  0.21720889  0.84284913  0.88766704     0.44200
Cu807      Cu  0.15731880  0.83107539  0.85270790     0.42000
Cu808      Cu  0.14414847  0.77278234  0.88892563     0.43900
N809        N  0.20617135  0.80963758  0.90823072    -0.34400
N810        N  0.17838276  0.78301713  0.90870831    -0.28700
C811        C  0.17691348  0.76640680  0.92379243    -0.04800
C812        C  0.20525506  0.78357933  0.93329157     0.07400
C813        C  0.22329800  0.81087035  0.92301102     0.01200
H814        H  0.15645182  0.74394086  0.92775868     0.08900
H815        H  0.24678199  0.83048344  0.92622342     0.08000
N816        N  0.11232516  0.76609394  0.86823925    -0.35900
N817        N  0.11616205  0.78673972  0.85524336    -0.28100
C818        C  0.09045257  0.77330455  0.84413222    -0.03300
C819        C  0.06987125  0.74278969  0.85046659     0.05300
C820        C  0.08451058  0.73917702  0.86571485     0.03400
H821        H  0.08751854  0.78447690  0.83204825     0.08500
H822        H  0.07584512  0.71827288  0.87429502     0.07300
N823        N  0.97855956  0.31232874  0.32374530    -0.27000
N824        N  0.97479768  0.33308599  0.33350866    -0.34900
C825        C  0.94688387  0.31802152  0.34233205     0.01300
C826        C  0.93196475  0.28611108  0.33796752     0.07300
C827        C  0.95257185  0.28318696  0.32603775    -0.05800
H828        H  0.93850386  0.32950620  0.35165103     0.08000
H829        H  0.94950026  0.26144229  0.32008677     0.09200
Cu830      Cu  0.00799572  0.38056184  0.33638279     0.44200
Cu831      Cu  0.02052462  0.32576175  0.30925596     0.42000
Cu832      Cu  0.08273235  0.41111271  0.31593647     0.43900
N833        N  0.04446754  0.42598639  0.34158764    -0.34400
N834        N  0.07295280  0.43769830  0.33418416    -0.28700
C835        C  0.09251108  0.46657001  0.34150827    -0.04800
C836        C  0.07514796  0.47308291  0.35401212     0.07400
C837        C  0.04487733  0.44687362  0.35377539     0.01200
H838        H  0.11764235  0.48109538  0.33852820     0.08900
H839        H  0.02506877  0.44263450  0.36244095     0.08000
N840        N  0.08712256  0.37888663  0.29938110    -0.35900
N841        N  0.06559451  0.34839394  0.29706641    -0.28100
C842        C  0.07730853  0.33554789  0.28521545    -0.03300
C843        C  0.10739767  0.35916591  0.27983239     0.05300
C844        C  0.11271655  0.38618124  0.28904670     0.03400
H845        H  0.06445884  0.31117033  0.28041772     0.08500
H846        H  0.13354867  0.40971309  0.28808215     0.07300
N847        N  0.67423588  0.00911328  0.32445336    -0.27000
N848        N  0.65357841  0.01280734  0.33435333    -0.34900
C849        C  0.66870796  0.04080086  0.34312495     0.01300
C850        C  0.70053184  0.05579285  0.33857655     0.07300
C851        C  0.70334118  0.03516403  0.32661551    -0.05800
H852        H  0.65731229  0.04925411  0.35245840     0.08000
H853        H  0.72497372  0.03834424  0.32046247     0.09200
Cu854      Cu  0.60604529  0.97963046  0.33715192     0.44200
Cu855      Cu  0.66091206  0.96742042  0.30971561     0.42000
Cu856      Cu  0.57531489  0.90598473  0.31499399     0.43900
N857        N  0.56024573  0.94312678  0.34148102    -0.34400
N858        N  0.54844374  0.91513169  0.33339377    -0.28700
C859        C  0.51936028  0.89527743  0.34036541    -0.04800
C860        C  0.51279819  0.91192396  0.35336415     0.07400
C861        C  0.53919328  0.94208752  0.35375998     0.01200
H862        H  0.50477706  0.87034481  0.33686843     0.08900
H863        H  0.54346540  0.96131525  0.36295463     0.08000
N864        N  0.60801427  0.90129188  0.29905749    -0.35900
N865        N  0.63865698  0.92260947  0.29723446    -0.28100
C866        C  0.65191384  0.91077843  0.28576117    -0.03300
C867        C  0.62841105  0.88078715  0.28012529     0.05300
C868        C  0.60103794  0.87568145  0.28879856     0.03400
H869        H  0.67652996  0.92346296  0.28141317     0.08500
H870        H  0.57749299  0.85497108  0.28751816     0.07300
N871        N  0.85648425  0.21656851  0.35167446    -0.27000
N872        N  0.85985414  0.23781537  0.36417213    -0.34900
C873        C  0.88702365  0.26516606  0.36107317     0.01300
C874        C  0.90182243  0.26123051  0.34599308     0.07300
C875        C  0.88193099  0.23007311  0.34033960    -0.05800
H876        H  0.89532433  0.28644915  0.36928224     0.08000
H877        H  0.88528162  0.21837322  0.32864244     0.09200
Cu878      Cu  0.82854540  0.23111108  0.38518848     0.44200
Cu879      Cu  0.81615712  0.17116795  0.35010965     0.42000
Cu880      Cu  0.75602780  0.16066243  0.38466378     0.43900
N881        N  0.79471918  0.22095037  0.40523086    -0.34400
N882        N  0.76705225  0.19419112  0.40497634    -0.28700
C883        C  0.75002273  0.19313534  0.41976965    -0.04800
C884        C  0.76801710  0.22069891  0.42983156     0.07400
C885        C  0.79623442  0.23782888  0.42020346     0.01200
H886        H  0.72668008  0.17343751  0.42315649     0.08900
H887        H  0.81662616  0.26047204  0.42399265     0.08000
N888        N  0.74910941  0.12878767  0.36398557    -0.35900
N889        N  0.77038667  0.13141863  0.35172918    -0.28100
C890        C  0.75673110  0.10557534  0.34068847    -0.03300
C891        C  0.72547021  0.08620216  0.34629162     0.05300
C892        C  0.72161367  0.10170902  0.36102998     0.03400
H893        H  0.76844992  0.10154418  0.32925803     0.08500
H894        H  0.70032408  0.09391623  0.36913990     0.07300
N895        N  0.25868383  0.34825515  0.29655576    -0.27000
N896        N  0.26786844  0.37874291  0.29881875    -0.34900
C897        C  0.25033078  0.38617048  0.28794998     0.01300
C898        C  0.22879071  0.35925149  0.27846029     0.07300
C899        C  0.23464745  0.33555241  0.28423663    -0.05800
H900        H  0.25304099  0.40960706  0.28707371     0.08000
H901        H  0.22274579  0.31108108  0.27960057     0.09200
Cu902      Cu  0.30299809  0.41053782  0.31658458     0.44200
Cu903      Cu  0.27981219  0.32527788  0.30984385     0.42000
Cu904      Cu  0.34285578  0.37846636  0.34038439     0.43900
N905        N  0.33762448  0.43663546  0.33608604    -0.34400
N906        N  0.35246985  0.42423696  0.34489368    -0.28700
C907        C  0.37243559  0.44524818  0.35730223    -0.04800
C908        C  0.37014461  0.47229930  0.35620193     0.07400
C909        C  0.34778836  0.46611774  0.34266819     0.01200
H910        H  0.38678147  0.44077820  0.36681042     0.08900
H911        H  0.33893557  0.48146603  0.33834562     0.08000
N912        N  0.32967821  0.33146435  0.33656664    -0.35900
N913        N  0.30682629  0.31127789  0.32550271    -0.28100
C914        C  0.30426349  0.28239362  0.32723286    -0.03300
C915        C  0.32640815  0.28485384  0.34014285     0.05300
C916        C  0.34198824  0.31628277  0.34564405     0.03400
H917        H  0.28697625  0.26108000  0.32011835     0.08500
H918        H  0.36062618  0.32736547  0.35582371     0.07300
N919        N  0.25693548  0.92107355  0.29746158    -0.27000
N920        N  0.26602974  0.89992391  0.30017395    -0.34900
C921        C  0.24904963  0.87467051  0.28923508     0.01300
C922        C  0.22803240  0.87980431  0.27925063     0.07300
C923        C  0.23353540  0.90938918  0.28479047    -0.05800
H924        H  0.25188607  0.85403535  0.28860195     0.08000
H925        H  0.22192264  0.92181379  0.27970056     0.09200
Cu926      Cu  0.30079309  0.90415698  0.31823864     0.44200
Cu927      Cu  0.27752655  0.96569894  0.31024549     0.42000
Cu928      Cu  0.34329150  0.97807724  0.33924606     0.43900
N929        N  0.33664627  0.91401276  0.33690079    -0.34400
N930        N  0.35287307  0.94229937  0.34466895    -0.28700
C931        C  0.37376927  0.94225509  0.35667319    -0.04800
C932        C  0.37057594  0.91242730  0.35634554     0.07400
C933        C  0.34674849  0.89497420  0.34373546     0.01200
H934        H  0.38935547  0.96208294  0.36539647     0.08900
H935        H  0.33694067  0.87015672  0.34019536     0.08000
N936        N  0.32949140  0.01122567  0.33543892    -0.35900
N937        N  0.30560845  0.00763685  0.32509026    -0.28100
C938        C  0.30283688  0.03376767  0.32704474    -0.03300
C939        C  0.32593321  0.05425354  0.33937566     0.05300
C940        C  0.34226923  0.03911622  0.34427396     0.03400
H941        H  0.28467718  0.03701187  0.32059983     0.08500
H942        H  0.36163055  0.04732812  0.35399541     0.07300
N943        N  0.33305489  0.13012575  0.35281507    -0.27000
N944        N  0.34961213  0.12610318  0.36586548    -0.34900
C945        C  0.34914517  0.09869327  0.36292803     0.01300
C946        C  0.33134801  0.08441644  0.34738794     0.07300
C947        C  0.32132607  0.10489308  0.34130030    -0.05800
H948        H  0.36102890  0.08984118  0.37156609     0.08000
H949        H  0.30724633  0.10206377  0.32920867     0.09200
Cu950      Cu  0.37313174  0.15697468  0.38747823     0.44200
Cu951      Cu  0.32901614  0.17083326  0.35094026     0.42000
Cu952      Cu  0.37403138  0.22918281  0.38724884     0.43900
N953        N  0.39567335  0.19074368  0.40794190    -0.34400
N954        N  0.39604239  0.21802753  0.40783276    -0.28700
C955        C  0.41179112  0.23507135  0.42274241    -0.04800
C956        C  0.42185863  0.21758090  0.43272253     0.07400
C957        C  0.41122028  0.18958727  0.42291866     0.01200
H958        H  0.41536256  0.25829652  0.42612954     0.08900
H959        H  0.41418873  0.16968491  0.42650455     0.08000
N960        N  0.35022289  0.23645244  0.36597228    -0.35900
N961        N  0.33334436  0.21576189  0.35294630    -0.28100
C962        C  0.32156432  0.22933356  0.34164251    -0.03300
C963        C  0.33186146  0.25998611  0.34786921     0.05300
C964        C  0.34987097  0.26349098  0.36326490     0.03400
H965        H  0.30720219  0.21801336  0.32961938     0.08500
H966        H  0.36201888  0.28429590  0.37195593     0.07300
N967        N  0.41436223  0.85148824  0.42259577    -0.36400
N968        N  0.38222393  0.87354169  0.39769335    -0.56900
N969        N  0.43483889  0.89683959  0.37215765    -0.36400
N970        N  0.46538405  0.87166329  0.39571266    -0.56900
C971        C  0.38463186  0.83653247  0.42978197     0.27200
C972        C  0.42926685  0.83630220  0.42901557     0.27200
C973        C  0.41413854  0.90112005  0.36192474     0.27200
C974        C  0.45840443  0.90027493  0.36087621     0.27200
C975        C  0.36203591  0.86442764  0.41209969     0.35800
C976        C  0.37339002  0.88937566  0.38611074     0.35800
C977        C  0.47793798  0.86299518  0.40954234     0.35800
C978        C  0.48905735  0.88756732  0.38340017     0.35800
C979        C  0.38092460  0.81211960  0.44123077    -0.21600
C980        C  0.40903023  0.81197255  0.44074577    -0.21600
C981        C  0.42498318  0.90790386  0.34395517    -0.21600
C982        C  0.45293166  0.90738056  0.34329483    -0.21600
C983        C  0.34025895  0.87447103  0.40966374    -0.22700
C984        C  0.34746641  0.89030602  0.39321430    -0.22700
C985        C  0.50962372  0.87327709  0.40595371    -0.22700
C986        C  0.51666469  0.88881175  0.38940851    -0.22700
C987        C  0.36070193  0.84424530  0.42640246    -0.18000
C988        C  0.46063548  0.84378710  0.42464550    -0.18000
C989        C  0.48571609  0.89923823  0.36626507    -0.18000
C990        C  0.38668047  0.90074377  0.36856312    -0.18000
H991        H  0.35997325  0.79572018  0.44895452     0.14900
H992        H  0.41370874  0.79534883  0.44796180     0.14900
H993        H  0.41408579  0.91301608  0.33252646     0.14900
H994        H  0.46769897  0.91203379  0.33126322     0.14900
H995        H  0.32077227  0.87022379  0.41863228     0.13100
H996        H  0.33457946  0.90063219  0.38701369     0.13100
H997        H  0.52590779  0.86966702  0.41429300     0.13100
H998        H  0.53943288  0.89941340  0.38249232     0.13100
H999        H  0.42465879  0.87230020  0.41488782     0.26400
H1000       H  0.43484927  0.89527123  0.38634841     0.26400
N1001       N  0.48861078  0.69559153  0.45832932    -0.27000
N1002       N  0.49056460  0.71028630  0.44271659    -0.34900
C1003       C  0.48213717  0.68944321  0.42881596     0.01300
C1004       C  0.47434129  0.66014494  0.43600435     0.07300
C1005       C  0.47860939  0.66478068  0.45478279    -0.05800
H1006       H  0.47996208  0.69474480  0.41464992     0.08000
H1007       H  0.47377548  0.64691698  0.46510522     0.09200
Cu1008     Cu  0.49825578  0.75600235  0.44118922     0.44200
Cu1009     Cu  0.49798332  0.71860963  0.48345723     0.42000
Cu1010     Cu  0.50068464  0.79563845  0.48299255     0.43900
N1011       N  0.49115094  0.79434129  0.44223567    -0.34400
N1012       N  0.49025694  0.80813822  0.45767697    -0.28700
C1013       C  0.48025237  0.82877099  0.45389065    -0.04800
C1014       C  0.47487087  0.82791063  0.43514363     0.07400
C1015       C  0.48205156  0.80586254  0.42824066     0.01200
H1016       H  0.47617698  0.84253956  0.46405033     0.08900
H1017       H  0.47905387  0.79743426  0.41422641     0.08000
N1018       N  0.51300743  0.77748830  0.50541162    -0.35900
N1019       N  0.51187192  0.74973360  0.50552941    -0.28100
C1020       C  0.52292185  0.74611009  0.52171540    -0.03300
C1021       C  0.53141788  0.77278992  0.53230697     0.05300
C1022       C  0.52479474  0.79217367  0.52157637     0.03400
H1023       H  0.52539294  0.72589722  0.52527443     0.08500
H1024       H  0.52909743  0.81564631  0.52502387     0.07300
N1025       N  0.13515838  0.57210504  0.42306257    -0.36400
N1026       N  0.11490574  0.52076766  0.39632756    -0.56900
N1027       N  0.08935490  0.55094615  0.37269795    -0.36400
N1028       N  0.11288388  0.60395293  0.39807102    -0.56900
C1029       C  0.15047060  0.55733933  0.42951592     0.27200
C1030       C  0.14988888  0.60185994  0.43026449     0.27200
C1031       C  0.08562363  0.52710966  0.36153817     0.27200
C1032       C  0.08493739  0.57150720  0.36239614     0.27200
C1033       C  0.12406169  0.50850347  0.41007901     0.35800
C1034       C  0.09914130  0.49698855  0.38404952     0.35800
C1035       C  0.12199187  0.62429037  0.41241889     0.35800
C1036       C  0.09715738  0.61276293  0.38638959     0.35800
C1037       C  0.17463652  0.57769457  0.44129446    -0.21600
C1038       C  0.17424916  0.60570423  0.44177851    -0.21600
C1039       C  0.07806571  0.53220381  0.34398394    -0.21600
C1040       C  0.07764326  0.56023010  0.34452401    -0.21600
C1041       C  0.11418320  0.47687807  0.40648257    -0.22700
C1042       C  0.09841584  0.46958488  0.39001511    -0.22700
C1043       C  0.11205846  0.64613141  0.40984232    -0.22700
C1044       C  0.09633863  0.63884559  0.39336781    -0.22700
C1045       C  0.14329035  0.52601601  0.42513203    -0.18000
C1046       C  0.14209643  0.62573934  0.42679497    -0.18000
C1047       C  0.08568975  0.59925679  0.36888395    -0.18000
C1048       C  0.08716265  0.50005482  0.36696236    -0.18000
H1049       H  0.19132906  0.57317579  0.44854286     0.14900
H1050       H  0.19048100  0.62670223  0.44953059     0.14900
H1051       H  0.07314464  0.51718645  0.33203512     0.14900
H1052       H  0.07231209  0.57091731  0.33307355     0.14900
H1053       H  0.11820417  0.46079626  0.41476473     0.13100
H1054       H  0.08800482  0.44679319  0.38311457     0.13100
H1055       H  0.11631717  0.66572873  0.41873206     0.13100
H1056       H  0.08613902  0.65178705  0.38708693     0.13100
H1057       H  0.11442919  0.56171535  0.41530207     0.26400
H1058       H  0.09141221  0.55130813  0.38686547     0.26400
N1059       N  0.18000290  0.69353118  0.45827723    -0.27000
N1060       N  0.19616684  0.70597919  0.44297315    -0.34900
C1061       C  0.18451682  0.68404747  0.42959930     0.01300
C1062       C  0.15987925  0.65631272  0.43677791     0.07300
C1063       C  0.15755652  0.66295820  0.45502728    -0.05800
H1064       H  0.19412488  0.68763351  0.41584110     0.08000
H1065       H  0.14126107  0.64670477  0.46520311     0.09200
Cu1066     Cu  0.23612527  0.75044213  0.44127895     0.44200
Cu1067     Cu  0.19124648  0.71946398  0.48264956     0.42000
Cu1068     Cu  0.26831750  0.79484633  0.48276839     0.43900
N1069       N  0.28083197  0.79005219  0.44291705    -0.34400
N1070       N  0.29364534  0.80598390  0.45823997    -0.28700
C1071       C  0.32411344  0.82846244  0.45485520    -0.04800
C1072       C  0.33031485  0.82643472  0.43649774     0.07400
C1073       C  0.30245293  0.80188848  0.42939327     0.01200
H1074       H  0.34058167  0.84461558  0.46500261     0.08900
H1075       H  0.29855306  0.79250537  0.41556744     0.08000
N1076       N  0.23606881  0.77871247  0.50447603    -0.35900
N1077       N  0.20835263  0.75172789  0.50441494    -0.28100
C1078       C  0.19320371  0.74925328  0.52033031    -0.03300
C1079       C  0.21222828  0.77587222  0.53089298     0.05300
C1080       C  0.23919840  0.79401314  0.52042680     0.03400
H1081       H  0.16986747  0.72966257  0.52383620     0.08500
H1082       H  0.25946670  0.81688224  0.52400954     0.07300
N1083       N  0.41323524  0.57584022  0.42319902    -0.36400
N1084       N  0.46575897  0.60665115  0.39708787    -0.56900
N1085       N  0.43447568  0.55215914  0.37276801    -0.36400
N1086       N  0.38086977  0.52248134  0.39770220    -0.56900
C1087       C  0.42827847  0.60624740  0.42940008     0.27200
C1088       C  0.38306837  0.56142220  0.42972814     0.27200
C1089       C  0.45861483  0.57261481  0.36179783     0.27200
C1090       C  0.41340169  0.52777916  0.36214130     0.27200
C1091       C  0.47812524  0.62750003  0.41116141     0.35800
C1092       C  0.48983995  0.61448253  0.38512466     0.35800
C1093       C  0.36071078  0.51081940  0.41211408     0.35800
C1094       C  0.37242235  0.49780179  0.38608345     0.35800
C1095       C  0.40760440  0.61099344  0.44022353    -0.21600
C1096       C  0.37910766  0.58274449  0.44042537    -0.21600
C1097       C  0.45302286  0.56090606  0.34398850    -0.21600
C1098       C  0.42447396  0.53259491  0.34420532    -0.21600
C1099       C  0.51017713  0.64867204  0.40814624    -0.22700
C1100       C  0.51760260  0.64045344  0.39164879    -0.22700
C1101       C  0.33938807  0.47861887  0.40966767    -0.22700
C1102       C  0.34676976  0.47037210  0.39316791    -0.22700
C1103       C  0.46020539  0.62978459  0.42568454    -0.18000
C1104       C  0.35908687  0.52948638  0.42642372    -0.18000
C1105       C  0.38575992  0.50025534  0.36850206    -0.18000
C1106       C  0.48654711  0.60028040  0.36771685    -0.18000
H1107       H  0.41229269  0.63272154  0.44701422     0.14900
H1108       H  0.35774601  0.57864109  0.44740447     0.14900
H1109       H  0.46816328  0.57138597  0.33211477     0.14900
H1110       H  0.41343042  0.51708772  0.33253184     0.14900
H1111       H  0.52636475  0.66843187  0.41674053     0.13100
H1112       H  0.54064730  0.65274664  0.38503307     0.13100
H1113       H  0.32007274  0.46285795  0.41864897     0.13100
H1114       H  0.33415679  0.44700022  0.38693353     0.13100
H1115       H  0.42367044  0.56486121  0.41615282     0.26400
H1116       H  0.43434129  0.55282092  0.38700163     0.26400
N1117       N  0.29365502  0.50225899  0.45926895    -0.27000
N1118       N  0.27873638  0.49938249  0.44360953    -0.34900
C1119       C  0.29948168  0.50750848  0.42969017     0.01300
C1120       C  0.32894860  0.51609712  0.43690266     0.07300
C1121       C  0.32451350  0.51258069  0.45572223    -0.05800
H1122       H  0.29392211  0.50873293  0.41544251     0.08000
H1123       H  0.34247816  0.51790151  0.46605027     0.09200
Cu1124     Cu  0.23263421  0.49052785  0.44185664     0.44200
Cu1125     Cu  0.27076301  0.49308427  0.48443764     0.42000
Cu1126     Cu  0.19294689  0.48808279  0.48367252     0.43900
N1127       N  0.19363467  0.49658687  0.44279864    -0.34400
N1128       N  0.17986053  0.49751057  0.45824040    -0.28700
C1129       C  0.15884107  0.50698412  0.45440652    -0.04800
C1130       C  0.15941953  0.51202386  0.43563360     0.07400
C1131       C  0.18169524  0.50514197  0.42875475     0.01200
H1132       H  0.14507508  0.51106274  0.46456008     0.08900
H1133       H  0.19006298  0.50810997  0.41472945     0.08000
N1134       N  0.21141074  0.47645977  0.50624550    -0.35900
N1135       N  0.23951456  0.47841204  0.50647438    -0.28100
C1136       C  0.24328888  0.46744143  0.52265896    -0.03300
C1137       C  0.21634262  0.45815632  0.53314110     0.05300
C1138       C  0.19664985  0.46423806  0.52233947     0.03400
H1139       H  0.26378753  0.46553225  0.52628460     0.08500
H1140       H  0.17290520  0.45919977  0.52567240     0.07300
N1141       N  0.63936842  0.72843659  0.29699371    -0.27000
N1142       N  0.60894380  0.71941086  0.29921814    -0.34900
C1143       C  0.60185376  0.73749334  0.28861458     0.01300
C1144       C  0.62893156  0.75919623  0.27933022     0.07300
C1145       C  0.65237560  0.75289487  0.28495004    -0.05800
H1146       H  0.57849060  0.73490017  0.28768884     0.08000
H1147       H  0.67682815  0.76467124  0.28032297     0.09200
Cu1148     Cu  0.57666524  0.68348053  0.31635685     0.44200
Cu1149     Cu  0.66179222  0.70645636  0.30987314     0.42000
Cu1150     Cu  0.60787313  0.64229141  0.33956607     0.43900
N1151       N  0.54996548  0.64786669  0.33519039    -0.34400
N1152       N  0.56202088  0.63250821  0.34378712    -0.28700
C1153       C  0.54083404  0.61235898  0.35605978    -0.04800
C1154       C  0.51403339  0.61507005  0.35507832     0.07400
C1155       C  0.52054953  0.63786893  0.34176857     0.01200
H1156       H  0.54516119  0.59787609  0.36554706     0.08900
H1157       H  0.50562430  0.64737847  0.33774661     0.08000
N1158       N  0.65496044  0.65569304  0.33608857    -0.35900
N1159       N  0.67536465  0.67889081  0.32527825    -0.28100
C1160       C  0.70419505  0.68144345  0.32711769    -0.03300
C1161       C  0.70147811  0.65893070  0.33984187     0.05300
C1162       C  0.66996059  0.64315403  0.34512703     0.03400
H1163       H  0.72563880  0.69897987  0.32021925     0.08500
H1164       H  0.65868945  0.62421111  0.35512501     0.07300
N1165       N  0.06668560  0.73062047  0.29852243    -0.27000
N1166       N  0.08742263  0.72088699  0.30081530    -0.34900
C1167       C  0.11240810  0.73756630  0.28965082     0.01300
C1168       C  0.10749325  0.75898605  0.27992501     0.07300
C1169       C  0.07835260  0.75408276  0.28587996    -0.05800
H1170       H  0.13265502  0.73417131  0.28863989     0.08000
H1171       H  0.06618229  0.76612941  0.28107774     0.09200
Cu1172     Cu  0.08289423  0.68548782  0.31850552     0.44200
Cu1173     Cu  0.02257108  0.71092357  0.31180984     0.42000
Cu1174     Cu  0.01041394  0.64614916  0.34136794     0.43900
N1175       N  0.07276774  0.64949119  0.33716411    -0.34400
N1176       N  0.04506294  0.63460149  0.34565592    -0.28700
C1177       C  0.04494406  0.61362332  0.35766177    -0.04800
C1178       C  0.07404182  0.61532853  0.35660240     0.07400
C1179       C  0.09126090  0.63839144  0.34353379     0.01200
H1180       H  0.02563927  0.59917532  0.36697927     0.08900
H1181       H  0.11568432  0.64721401  0.33948218     0.08000
N1182       N  0.97771167  0.66057637  0.33796872    -0.35900
N1183       N  0.98110363  0.68399233  0.32724542    -0.28100
C1184       C  0.95496021  0.68675576  0.32903785    -0.03300
C1185       C  0.93466377  0.66412444  0.34164665     0.05300
C1186       C  0.94996719  0.64811994  0.34691316     0.03400
H1187       H  0.95141983  0.70438761  0.32212992     0.08500
H1188       H  0.94174803  0.62889712  0.35674448     0.07300
N1189       N  0.85733978  0.65483243  0.35362545    -0.27000
N1190       N  0.86163288  0.63912694  0.36708229    -0.34900
C1191       C  0.88964786  0.64064197  0.36477927     0.01300
C1192       C  0.90407221  0.65824690  0.34920825     0.07300
C1193       C  0.88301916  0.66705310  0.34244020    -0.05800
H1194       H  0.89874498  0.62948280  0.37382547     0.08000
H1195       H  0.88575998  0.68056657  0.33009950     0.09200
Cu1196     Cu  0.83014254  0.61518080  0.38827443     0.44200
Cu1197     Cu  0.81567054  0.65702204  0.35105003     0.42000
Cu1198     Cu  0.75645906  0.61101584  0.38717375     0.43900
N1199       N  0.79611090  0.59157862  0.40835842    -0.34400
N1200       N  0.76822728  0.58988663  0.40798993    -0.28700
C1201       C  0.75124985  0.57364019  0.42281328    -0.04800
C1202       C  0.76946690  0.56466074  0.43296265     0.07400
C1203       C  0.79775784  0.57643673  0.42337654     0.01200
H1204       H  0.72759024  0.56898578  0.42602159     0.08900
H1205       H  0.81819890  0.57451819  0.42713215     0.08000
N1206       N  0.74951980  0.63481832  0.36574740    -0.35900
N1207       N  0.77038745  0.65192915  0.35283951    -0.28100
C1208       C  0.75692885  0.66379535  0.34151493    -0.03300
C1209       C  0.72619709  0.65332916  0.34759987     0.05300
C1210       C  0.72250286  0.63512033  0.36293226     0.03400
H1211       H  0.76842739  0.67842768  0.32960363     0.08500
H1212       H  0.70161697  0.62288740  0.37154413     0.07300
O1213       O  0.18309265  0.33104843  0.25894803    -0.72700
O1214       O  0.12247873  0.33137319  0.22079525    -0.73700
O1215       O  0.18143931  0.33114754  0.21977923    -0.62300
O1216       O  0.12378440  0.33107682  0.25983622    -0.70700
O1217       O  0.15141355  0.38394290  0.25979280    -0.70300
O1218       O  0.20750227  0.38401937  0.21988624    -0.61500
O1219       O  0.14984146  0.38423510  0.22113472    -0.74000
O1220       O  0.20924646  0.38389859  0.25868605    -0.72800
Cu1221     Cu  0.15171792  0.32917371  0.23984521     1.04600
Cu1222     Cu  0.18039213  0.38572623  0.23988924     1.04300
C1223       C  0.20587032  0.35775861  0.26472273     0.93500
C1224       C  0.12671799  0.35812630  0.21512104     0.92600
C1225       C  0.20355468  0.35781014  0.21356172     0.84800
C1226       C  0.12850257  0.35778198  0.26591150     0.91100
O1227       O  0.60440810  0.83764603  0.22162565    -0.72700
O1228       O  0.60454852  0.77881064  0.25949204    -0.73700
O1229       O  0.60422529  0.83652732  0.26022349    -0.62300
O1230       O  0.60491775  0.78018100  0.22071815    -0.70700
O1231       O  0.65774223  0.80640933  0.22076575    -0.70300
O1232       O  0.65703472  0.86431940  0.26056555    -0.61500
O1233       O  0.65735716  0.80504127  0.25994541    -0.74000
O1234       O  0.65722607  0.86535603  0.22147982    -0.72800
Cu1235     Cu  0.60284572  0.80740351  0.24053019     1.04600
Cu1236     Cu  0.65934857  0.83628356  0.24071055     1.04300
C1237       C  0.63047243  0.86083508  0.21564763     0.93500
C1238       C  0.63061005  0.78223090  0.26563745     0.92600
C1239       C  0.63020864  0.85957132  0.26641613     0.84800
C1240       C  0.63118583  0.78418180  0.21449956     0.91100
N1241       N  0.97682230  0.31076746  0.15674511    -0.27000
N1242       N  0.97334239  0.33150825  0.14680882    -0.34900
C1243       C  0.94552960  0.31664683  0.13796393     0.01300
C1244       C  0.93036593  0.28481724  0.14237028     0.07300
C1245       C  0.95069464  0.28170264  0.15444170    -0.05800
H1246       H  0.93748931  0.32824555  0.12852314     0.08000
H1247       H  0.94731096  0.25992460  0.16051041     0.09200
Cu1248     Cu  0.00655752  0.37855441  0.14324148     0.44200
Cu1249     Cu  0.01853094  0.32446649  0.17157987     0.42000
Cu1250     Cu  0.07946179  0.41068213  0.16528315     0.43900
N1251       N  0.04256643  0.42378558  0.13765739    -0.34400
N1252       N  0.07050263  0.43636201  0.14582998    -0.28700
C1253       C  0.08997571  0.46523368  0.13847070    -0.04800
C1254       C  0.07312009  0.47072075  0.12509021     0.07400
C1255       C  0.04321627  0.44399212  0.12490724     0.01200
H1256       H  0.11467537  0.48060918  0.14217363     0.08900
H1257       H  0.02373670  0.43913891  0.11579973     0.08000
N1258       N  0.08415204  0.37889280  0.18219908    -0.35900
N1259       N  0.06321823  0.34814461  0.18423193    -0.28100
C1260       C  0.07529456  0.33556605  0.19600244    -0.03300
C1261       C  0.10498647  0.35957380  0.20165915     0.05300
C1262       C  0.10970950  0.38658705  0.19267452     0.03400
H1263       H  0.06307184  0.31096616  0.20040826     0.08500
H1264       H  0.13028801  0.41027828  0.19370024     0.07300
N1265       N  0.67518920  0.01033759  0.15756584    -0.27000
N1266       N  0.65413219  0.01420606  0.14822955    -0.34900
C1267       C  0.66891292  0.04190038  0.13920934     0.01300
C1268       C  0.70095564  0.05652831  0.14292553     0.07300
C1269       C  0.70430773  0.03605257  0.15473939    -0.05800
H1270       H  0.65711753  0.05018624  0.13008627     0.08000
H1271       H  0.72626283  0.03896857  0.16021281     0.09200
Cu1272     Cu  0.60675304  0.98128842  0.14547210     0.44200
Cu1273     Cu  0.66220649  0.96859435  0.17213946     0.42000
Cu1274     Cu  0.57697846  0.90668717  0.16566408     0.43900
N1275       N  0.56197215  0.94446828  0.13968226    -0.34400
N1276       N  0.55055011  0.91590642  0.14694300    -0.28700
C1277       C  0.52204384  0.89606966  0.13931682    -0.04800
C1278       C  0.51552873  0.91334343  0.12675122     0.07400
C1279       C  0.54128979  0.94386767  0.12730358     0.01200
H1280       H  0.50763167  0.87090829  0.14228488     0.08900
H1281       H  0.54526731  0.96382565  0.11885393     0.08000
N1282       N  0.60901855  0.90243185  0.18250670    -0.35900
N1283       N  0.63958032  0.92381967  0.18461996    -0.28100
C1284       C  0.65249645  0.91214978  0.19642982    -0.03300
C1285       C  0.62884701  0.88224183  0.20203797     0.05300
C1286       C  0.60173080  0.87697338  0.19298035     0.03400
H1287       H  0.67701078  0.92483799  0.20095183     0.08500
H1288       H  0.57821428  0.85614660  0.19401683     0.07300
N1289       N  0.85517221  0.21596973  0.12797854    -0.27000
N1290       N  0.85805749  0.23792330  0.11617574    -0.34900
C1291       C  0.88511655  0.26516396  0.11960402     0.01300
C1292       C  0.90024021  0.26034603  0.13420464     0.07300
C1293       C  0.88071053  0.22882521  0.13920854    -0.05800
H1294       H  0.89310062  0.28694718  0.11194845     0.08000
H1295       H  0.88435684  0.21639500  0.15038696     0.09200
Cu1296     Cu  0.82621761  0.23184920  0.09563740     0.44200
Cu1297     Cu  0.81536945  0.17062311  0.12889280     0.42000
Cu1298     Cu  0.75390853  0.16000382  0.09555726     0.43900
N1299       N  0.79263625  0.22100881  0.07536438    -0.34400
N1300       N  0.76531884  0.19383881  0.07530660    -0.28700
C1301       C  0.74880208  0.19246447  0.06020635    -0.04800
C1302       C  0.76672281  0.22023195  0.05029565     0.07400
C1303       C  0.79438426  0.23781497  0.06031687     0.01200
H1304       H  0.72584650  0.17243427  0.05652445     0.08900
H1305       H  0.81460495  0.26071861  0.05673900     0.08000
N1306       N  0.74788025  0.12821160  0.11617438    -0.35900
N1307       N  0.76988630  0.13104939  0.12791722    -0.28100
C1308       C  0.75701197  0.10563944  0.13924605    -0.03300
C1309       C  0.72543003  0.08625803  0.13440444     0.05300
C1310       C  0.72057001  0.10129097  0.11976938     0.03400
H1311       H  0.76944940  0.10206169  0.15044285     0.08500
H1312       H  0.69869020  0.09337519  0.11224694     0.07300
N1313       N  0.25415148  0.34736902  0.18071325    -0.27000
N1314       N  0.26341244  0.37783337  0.17827825    -0.34900
C1315       C  0.24628757  0.38561019  0.18929172     0.01300
C1316       C  0.22511986  0.35894430  0.19908647     0.07300
C1317       C  0.23058506  0.33503673  0.19329477    -0.05800
H1318       H  0.24943359  0.40921222  0.19030457     0.08000
H1319       H  0.21904258  0.31077963  0.19827159     0.09200
Cu1320     Cu  0.29939973  0.40952989  0.16093246     0.44200
Cu1321     Cu  0.27477264  0.32385340  0.16773375     0.42000
Cu1322     Cu  0.33924836  0.37694723  0.13790923     0.43900
N1323       N  0.33660506  0.43630862  0.14296656    -0.34400
N1324       N  0.35175704  0.42378809  0.13461861    -0.28700
C1325       C  0.37340153  0.44523754  0.12302276    -0.04800
C1326       C  0.37186161  0.47271036  0.12414744     0.07400
C1327       C  0.34816187  0.46628000  0.13683793     0.01200
H1328       H  0.38788740  0.44057582  0.11371723     0.08900
H1329       H  0.33902249  0.48163255  0.14064221     0.08000
N1330       N  0.32387137  0.32931177  0.14079619    -0.35900
N1331       N  0.30072462  0.30924506  0.15174375    -0.28100
C1332       C  0.29713655  0.28000754  0.14963551    -0.03300
C1333       C  0.31893129  0.28214903  0.13658636     0.05300
C1334       C  0.33534713  0.31370126  0.13138173     0.03400
H1335       H  0.27949621  0.25875333  0.15664579     0.08500
H1336       H  0.35418147  0.32466198  0.12130113     0.07300
N1337       N  0.30503077  0.00906676  0.15519628    -0.27000
N1338       N  0.32990558  0.01375512  0.14538941    -0.34900
C1339       C  0.34139235  0.04103478  0.13600313     0.01300
C1340       C  0.32317701  0.05459675  0.13998739     0.07300
C1341       C  0.30034455  0.03385027  0.15234362    -0.05800
H1342       H  0.36112661  0.04983770  0.12649610     0.08000
H1343       H  0.28099065  0.03587303  0.15813392     0.09200
Cu1344     Cu  0.34646920  0.98245492  0.14274837     0.44200
Cu1345     Cu  0.27757726  0.96719334  0.17029652     0.42000
Cu1346     Cu  0.30234339  0.90731858  0.16257485     0.43900
N1347       N  0.35697640  0.94705674  0.13781601    -0.34400
N1348       N  0.34010627  0.91843720  0.14511001    -0.28700
C1349       C  0.35029327  0.89947796  0.13824455    -0.04800
C1350       C  0.37483793  0.91725092  0.12609000     0.07400
C1351       C  0.37837094  0.94724967  0.12607183     0.01200
H1352       H  0.33971804  0.87436141  0.14121717     0.08900
H1353       H  0.39415973  0.96719911  0.11748495     0.08000
N1354       N  0.26584416  0.90125472  0.17980716    -0.35900
N1355       N  0.25639465  0.92209807  0.18262125    -0.28100
C1356       C  0.23248365  0.90974298  0.19499790    -0.03300
C1357       C  0.22700261  0.88000508  0.20022732     0.05300
C1358       C  0.24855225  0.87549751  0.19034062     0.03400
H1359       H  0.22065934  0.92189506  0.20020985     0.08500
H1360       H  0.25181033  0.85511879  0.19094057     0.07300
N1361       N  0.32643426  0.12801329  0.12499233    -0.27000
N1362       N  0.34356141  0.12430859  0.11217075    -0.34900
C1363       C  0.34431511  0.09764432  0.11557065     0.01300
C1364       C  0.32675891  0.08353576  0.13121266     0.07300
C1365       C  0.31553890  0.10330022  0.13683789    -0.05800
H1366       H  0.35709896  0.08933788  0.10728036     0.08000
H1367       H  0.30148094  0.10052899  0.14894046     0.09200
Cu1368     Cu  0.36677995  0.15516462  0.09056204     0.44200
Cu1369     Cu  0.32134732  0.16815854  0.12621947     0.42000
Cu1370     Cu  0.36721264  0.22706597  0.08986848     0.43900
N1371       N  0.38928516  0.18842801  0.06992429    -0.34400
N1372       N  0.38972857  0.21574220  0.06975422    -0.28700
C1373       C  0.40567653  0.23248577  0.05482508    -0.04800
C1374       C  0.41568909  0.21468446  0.04511278     0.07400
C1375       C  0.40487479  0.18687496  0.05507926     0.01200
H1376       H  0.40933942  0.25566246  0.05122324     0.08900
H1377       H  0.40784257  0.16687921  0.05173367     0.08000
N1378       N  0.34241507  0.23360976  0.11078905    -0.35900
N1379       N  0.32538467  0.21289915  0.12377899    -0.28100
C1380       C  0.31344052  0.22645076  0.13498283    -0.03300
C1381       C  0.32379693  0.25706199  0.12871594     0.05300
C1382       C  0.34195631  0.26059214  0.11340295     0.03400
H1383       H  0.29915415  0.21524080  0.14705010     0.08500
H1384       H  0.35438130  0.28147062  0.10479782     0.07300
N1385       N  0.18125633  0.69490454  0.02400908    -0.27000
N1386       N  0.19653307  0.70758836  0.03952131    -0.34900
C1387       C  0.18394745  0.68579089  0.05295099     0.01300
C1388       C  0.15965605  0.65799659  0.04554192     0.07300
C1389       C  0.15856682  0.66443631  0.02714086    -0.05800
H1390       H  0.19283922  0.68940617  0.06687655     0.08000
H1391       H  0.14310170  0.64801724  0.01674905     0.09200
Cu1392     Cu  0.23657722  0.75223211  0.04133993     0.44200
Cu1393     Cu  0.19365786  0.71992560  0.99942965     0.42000
Cu1394     Cu  0.26912496  0.79604706  0.99948942     0.43900
N1395       N  0.28074112  0.79293402  0.03969680    -0.34400
N1396       N  0.29355268  0.80851855  0.02427553    -0.28700
C1397       C  0.32384153  0.83144045  0.02760825    -0.04800
C1398       C  0.33001461  0.83016097  0.04603971     0.07400
C1399       C  0.30225820  0.80553685  0.05324854     0.01200
H1400       H  0.34038267  0.84707317  0.01731363     0.08900
H1401       H  0.29855317  0.79632591  0.06710511     0.08000
N1402       N  0.23769927  0.77894213  0.97747898    -0.35900
N1403       N  0.21041239  0.75154865  0.97750684    -0.28100
C1404       C  0.19506550  0.74869902  0.96164347    -0.03300
C1405       C  0.21353241  0.77553315  0.95114125     0.05300
C1406       C  0.24040949  0.79415894  0.96157146     0.03400
H1407       H  0.17179352  0.72890164  0.95824201     0.08500
H1408       H  0.26006910  0.81749615  0.95812178     0.07300
N1409       N  0.13528003  0.57346248  0.05796575    -0.36400
N1410       N  0.11376348  0.52053023  0.08357561    -0.56900
N1411       N  0.08651329  0.54889044  0.10742629    -0.36400
N1412       N  0.11087126  0.60328008  0.08312499    -0.56900
C1413       C  0.15145376  0.55949897  0.05160868     0.27200
C1414       C  0.15030703  0.60371677  0.05151692     0.27200
C1415       C  0.08291538  0.52473190  0.11824727     0.27200
C1416       C  0.08165609  0.56885775  0.11806324     0.27200
C1417       C  0.12418207  0.50938275  0.06984958     0.35800
C1418       C  0.09767382  0.49604685  0.09537705     0.35800
C1419       C  0.12088451  0.62464774  0.06928296     0.35800
C1420       C  0.09463800  0.61140276  0.09487081     0.35800
C1421       C  0.17646573  0.58086139  0.04063689    -0.21600
C1422       C  0.17574798  0.60869537  0.04057769    -0.21600
C1423       C  0.07496842  0.52901167  0.13589125    -0.21600
C1424       C  0.07420553  0.55686460  0.13577667    -0.21600
C1425       C  0.11469073  0.47771662  0.07294322    -0.22700
C1426       C  0.09789783  0.46926191  0.08909654    -0.22700
C1427       C  0.11089187  0.64637689  0.07220871    -0.22700
C1428       C  0.09427981  0.63800011  0.08841167    -0.22700
C1429       C  0.14440845  0.52805496  0.05541294    -0.18000
C1430       C  0.14191026  0.62711015  0.05518649    -0.18000
C1431       C  0.08247051  0.59688778  0.11207589    -0.18000
C1432       C  0.08499328  0.49811636  0.11245589    -0.18000
H1433       H  0.19392765  0.57709809  0.03368629     0.14900
H1434       H  0.19252532  0.63034744  0.03353018     0.14900
H1435       H  0.07008454  0.51360921  0.14764187     0.14900
H1436       H  0.06865977  0.56703442  0.14741594     0.14900
H1437       H  0.11978543  0.46243262  0.06459310     0.13100
H1438       H  0.08762240  0.44619450  0.09565241     0.13100
H1439       H  0.11579782  0.66667694  0.06378670     0.13100
H1440       H  0.08387860  0.65059842  0.09491247     0.13100
H1441       H  0.11392458  0.56233235  0.06515619     0.26400
H1442       H  0.08887516  0.54987345  0.09325806     0.26400
N1443       N  0.48870585  0.69533970  0.02169757    -0.27000
N1444       N  0.48881405  0.70892460  0.03742860    -0.34900
C1445       C  0.48071807  0.68762755  0.05103338     0.01300
C1446       C  0.47503800  0.65918366  0.04352253     0.07300
C1447       C  0.48025576  0.66479580  0.02486040    -0.05800
H1448       H  0.47725428  0.69192582  0.06518947     0.08000
H1449       H  0.47698580  0.64770450  0.01433779     0.09200
Cu1450     Cu  0.49369264  0.75350892  0.03943451     0.44200
Cu1451     Cu  0.49816888  0.71927632  0.99692016     0.42000
Cu1452     Cu  0.49783207  0.79472144  0.99773642     0.43900
N1453       N  0.48646027  0.79181642  0.03847915    -0.34400
N1454       N  0.48659474  0.80636909  0.02313074    -0.28700
C1455       C  0.47768608  0.82782418  0.02703033    -0.04800
C1456       C  0.47192282  0.82671829  0.04573967     0.07400
C1457       C  0.47767611  0.80360812  0.05251608     0.01200
H1458       H  0.47493996  0.84261215  0.01698195     0.08900
H1459       H  0.47438637  0.79503683  0.06650557     0.08000
N1460       N  0.51203255  0.77813170  0.97532771    -0.35900
N1461       N  0.51200734  0.75092433  0.97516466    -0.28100
C1462       C  0.52477535  0.74851070  0.95931811    -0.03300
C1463       C  0.53332977  0.77543336  0.94897901     0.05300
C1464       C  0.52481700  0.79367247  0.95948931     0.03400
H1465       H  0.52859289  0.72906790  0.95590484     0.08500
H1466       H  0.52875885  0.81706719  0.95620543     0.07300
N1467       N  0.41416836  0.85373849  0.05879290    -0.36400
N1468       N  0.46617971  0.87344750  0.08492813    -0.56900
N1469       N  0.43786327  0.90065009  0.10889512    -0.36400
N1470       N  0.38410479  0.87762722  0.08419547    -0.56900
C1471       C  0.42810945  0.83770565  0.05216226     0.27200
C1472       C  0.38420960  0.83939816  0.05195053     0.27200
C1473       C  0.46182072  0.90397557  0.11977437     0.27200
C1474       C  0.41807911  0.90585895  0.11946089     0.27200
C1475       C  0.47743417  0.86319315  0.07117078     0.35800
C1476       C  0.49032387  0.88873263  0.09703314     0.35800
C1477       C  0.36280880  0.86787236  0.07033081     0.35800
C1478       C  0.37571795  0.89332391  0.09619866     0.35800
C1479       C  0.40708392  0.81357006  0.04059106    -0.21600
C1480       C  0.37947162  0.81463211  0.04045331    -0.21600
C1481       C  0.45757421  0.91203865  0.13739654    -0.21600
C1482       C  0.42996511  0.91320003  0.13720069    -0.21600
C1483       C  0.50879283  0.87191049  0.07458452    -0.22700
C1484       C  0.51696266  0.88809260  0.09094103    -0.22700
C1485       C  0.34081409  0.87742232  0.07353196    -0.22700
C1486       C  0.34898135  0.89353183  0.08989995    -0.22700
C1487       C  0.45916331  0.84395790  0.05630265    -0.18000
C1488       C  0.36074843  0.84760904  0.05584794    -0.18000
C1489       C  0.39025750  0.90535745  0.11342151    -0.18000
C1490       C  0.48821527  0.90147492  0.11408558    -0.18000
H1491       H  0.41086270  0.79637378  0.03331846     0.14900
H1492       H  0.35807708  0.79842515  0.03301363     0.14900
H1493       H  0.47283515  0.91671477  0.14918688     0.14900
H1494       H  0.41987511  0.91891481  0.14880825     0.14900
H1495       H  0.52410272  0.86681710  0.06626837     0.13100
H1496       H  0.53978384  0.89782033  0.09770975     0.13100
H1497       H  0.32052046  0.87261887  0.06515183     0.13100
H1498       H  0.33618958  0.90355421  0.09659136     0.13100
H1499       H  0.42513500  0.87454451  0.06650029     0.26400
H1500       H  0.43692077  0.89822206  0.09474030     0.26400
N1501       N  0.41501934  0.57419592  0.05601365    -0.36400
N1502       N  0.46715555  0.60630970  0.08241413    -0.56900
N1503       N  0.43630291  0.55226281  0.10709172    -0.36400
N1504       N  0.38271449  0.52159321  0.08204438    -0.56900
C1505       C  0.43007544  0.60430870  0.04933656     0.27200
C1506       C  0.38502809  0.55926297  0.04918275     0.27200
C1507       C  0.46035563  0.57304666  0.11800939     0.27200
C1508       C  0.41544456  0.52787242  0.11779148     0.27200
C1509       C  0.47941261  0.62697020  0.06825709     0.35800
C1510       C  0.49107447  0.61502392  0.09461173     0.35800
C1511       C  0.36216269  0.50958765  0.06782516     0.35800
C1512       C  0.37399191  0.49741110  0.09407091     0.35800
C1513       C  0.40970228  0.60819596  0.03775925    -0.21600
C1514       C  0.38135466  0.57984844  0.03766292    -0.21600
C1515       C  0.45498870  0.56147187  0.13584209    -0.21600
C1516       C  0.42664182  0.53294744  0.13570461    -0.21600
C1517       C  0.51121272  0.64889115  0.07145770    -0.22700
C1518       C  0.51860987  0.64133842  0.08814276    -0.22700
C1519       C  0.34029711  0.47768835  0.07081482    -0.22700
C1520       C  0.34777071  0.46996417  0.08742452    -0.22700
C1521       C  0.46157731  0.62852869  0.05346428    -0.18000
C1522       C  0.36073122  0.52768975  0.05312793    -0.18000
C1523       C  0.38763739  0.50030087  0.11161077    -0.18000
C1524       C  0.48789392  0.60114354  0.11210068    -0.18000
H1525       H  0.41438272  0.62947869  0.03045148     0.14900
H1526       H  0.36021148  0.57530190  0.03026761     0.14900
H1527       H  0.47008251  0.57227673  0.14769418     0.14900
H1528       H  0.41571153  0.51755498  0.14743492     0.14900
H1529       H  0.52724331  0.66868747  0.06283544     0.13100
H1530       H  0.54149055  0.65424563  0.09489221     0.13100
H1531       H  0.32059915  0.46179134  0.06209970     0.13100
H1532       H  0.33482447  0.44692744  0.09401657     0.13100
H1533       H  0.42526817  0.56383191  0.06378707     0.26400
H1534       H  0.43596416  0.55287061  0.09286632     0.26400
N1535       N  0.29422541  0.50049282  0.02108751    -0.27000
N1536       N  0.28034668  0.49986841  0.03680490    -0.34900
C1537       C  0.30154072  0.50806664  0.05047315     0.01300
C1538       C  0.33021505  0.51434521  0.04303566     0.07300
C1539       C  0.32484178  0.50938219  0.02433813    -0.05800
H1540       H  0.29695117  0.51106479  0.06465330     0.08000
H1541       H  0.34210736  0.51301107  0.01385921     0.09200
Cu1542     Cu  0.23530405  0.49393444  0.03883726     0.44200
Cu1543     Cu  0.27060831  0.49104884  0.99617410     0.42000
Cu1544     Cu  0.19497588  0.49076846  0.99707485     0.43900
N1545       N  0.19667806  0.50071482  0.03788090    -0.34400
N1546       N  0.18252625  0.50098576  0.02245922    -0.28700
C1547       C  0.16105163  0.50988100  0.02625629    -0.04800
C1548       C  0.16168018  0.51520493  0.04498458     0.07400
C1549       C  0.18454026  0.50919373  0.05188926     0.01200
H1550       H  0.14666733  0.51303861  0.01611662     0.08900
H1551       H  0.19282288  0.51227317  0.06593172     0.08000
N1552       N  0.21222072  0.47798734  0.97443366    -0.35900
N1553       N  0.23945304  0.47811487  0.97419713    -0.28100
C1554       C  0.24220591  0.46621533  0.95809432    -0.03300
C1555       C  0.21546558  0.45814518  0.94769559     0.05300
C1556       C  0.19701055  0.46603683  0.95842101     0.03400
H1557       H  0.26170408  0.46258508  0.95454447     0.08500
H1558       H  0.17364803  0.46215397  0.95516876     0.07300
N1559       N  0.64149214  0.73331628  0.18166989    -0.27000
N1560       N  0.61135080  0.72487634  0.17883592    -0.34900
C1561       C  0.60372657  0.74214929  0.18982976     0.01300
C1562       C  0.63015482  0.76261743  0.20001692     0.07300
C1563       C  0.65378310  0.75654729  0.19448524    -0.05800
H1564       H  0.58037261  0.73962253  0.19053248     0.08000
H1565       H  0.67778638  0.76745359  0.19978008     0.09200
Cu1566     Cu  0.57972992  0.68973428  0.16099190     0.44200
Cu1567     Cu  0.66440863  0.71190490  0.16882192     0.42000
Cu1568     Cu  0.61017885  0.64715473  0.13919512     0.43900
N1569       N  0.55215484  0.65223716  0.14330142    -0.34400
N1570       N  0.56383584  0.63583073  0.13554746    -0.28700
C1571       C  0.54209052  0.61399991  0.12415605    -0.04800
C1572       C  0.51527894  0.61672588  0.12477961     0.07400
C1573       C  0.52243981  0.64135622  0.13694896     0.01200
H1574       H  0.54616938  0.59858886  0.11528144     0.08900
H1575       H  0.50776686  0.65149984  0.14026041     0.08000
N1576       N  0.65763141  0.66201795  0.14194647    -0.35900
N1577       N  0.67804506  0.68511599  0.15280744    -0.28100
C1578       C  0.70697416  0.68805002  0.15065276    -0.03300
C1579       C  0.70425677  0.66590771  0.13766612     0.05300
C1580       C  0.67271437  0.64997909  0.13253036     0.03400
H1581       H  0.72839885  0.70541102  0.15763692     0.08500
H1582       H  0.66136990  0.63100667  0.12255070     0.07300
N1583       N  0.97739978  0.67993964  0.15533093    -0.27000
N1584       N  0.97322004  0.65547988  0.14527704    -0.34900
C1585       C  0.94539051  0.64299417  0.13643449     0.01300
C1586       C  0.93094618  0.66015168  0.14100367     0.07300
C1587       C  0.95174563  0.68340451  0.15315016    -0.05800
H1588       H  0.93680112  0.62331445  0.12689077     0.08000
H1589       H  0.94907328  0.70215694  0.15929153     0.09200
Cu1590     Cu  0.00554572  0.64055521  0.14166958     0.44200
Cu1591     Cu  0.01944493  0.70807426  0.17007616     0.42000
Cu1592     Cu  0.07992157  0.68382228  0.16218222     0.43900
N1593       N  0.04098683  0.63038740  0.13646834    -0.34400
N1594       N  0.06937687  0.64680989  0.14406611    -0.28700
C1595       C  0.08828185  0.63655529  0.13718275    -0.04800
C1596       C  0.07067171  0.61245264  0.12471386     0.07400
C1597       C  0.04086352  0.60926925  0.12452550     0.01200
H1598       H  0.11322405  0.64668268  0.14043554     0.08900
H1599       H  0.02103579  0.59377399  0.11578610     0.08000
N1600       N  0.08524944  0.71975868  0.17983348    -0.35900
N1601       N  0.06429251  0.72907634  0.18259688    -0.28100
C1602       C  0.07627893  0.75275044  0.19513954    -0.03300
C1603       C  0.10589982  0.75824151  0.20055699     0.05300
C1604       C  0.11071674  0.73692443  0.19059489     0.03400
H1605       H  0.06398572  0.76447369  0.20028631     0.08500
H1606       H  0.13119455  0.73385787  0.19122798     0.07300
N1607       N  0.85638472  0.65508425  0.12691053    -0.27000
N1608       N  0.85979965  0.63754674  0.11423962    -0.34900
C1609       C  0.88663442  0.63711355  0.11745870     0.01300
C1610       C  0.90118722  0.65535108  0.13281523     0.07300
C1611       C  0.88147220  0.66658280  0.13849053    -0.05800
H1612       H  0.89491258  0.62435070  0.10912408     0.08000
H1613       H  0.88472107  0.68135173  0.15033265     0.09200
Cu1614     Cu  0.82886643  0.61410765  0.09278438     0.44200
Cu1615     Cu  0.81652820  0.66051037  0.12798356     0.42000
Cu1616     Cu  0.75727535  0.61422418  0.09188131     0.43900
N1617       N  0.79576236  0.59176827  0.07214295    -0.34400
N1618       N  0.76854362  0.59146395  0.07191400    -0.28700
C1619       C  0.75191095  0.57564836  0.05693989    -0.04800
C1620       C  0.76969758  0.56559412  0.04726989     0.07400
C1621       C  0.79738293  0.57623861  0.05729103     0.01200
H1622       H  0.72887078  0.57219903  0.05325061     0.08900
H1623       H  0.81736624  0.57326475  0.05396200     0.08000
N1624       N  0.75133418  0.63999330  0.11244626    -0.35900
N1625       N  0.77223820  0.65719584  0.12530846    -0.28100
C1626       C  0.75923768  0.67001613  0.13625202    -0.03300
C1627       C  0.72877746  0.66007448  0.12995714     0.05300
C1628       C  0.72474076  0.64121662  0.11489024     0.03400
H1629       H  0.77072363  0.68464754  0.14816675     0.08500
H1630       H  0.70379574  0.62885954  0.10634261     0.07300
O1631       O  0.18256807  0.86231683  0.22040279    -0.72700
O1632       O  0.12422857  0.80319972  0.25973100    -0.73700
O1633       O  0.18335169  0.86250373  0.25936848    -0.62300
O1634       O  0.12334154  0.80280343  0.22070307    -0.70700
O1635       O  0.15024641  0.77718385  0.22047952    -0.70300
O1636       O  0.20916703  0.83577917  0.25910172    -0.61500
O1637       O  0.15098348  0.77741749  0.25940509    -0.74000
O1638       O  0.20852719  0.83574056  0.22020857    -0.72800
Cu1639     Cu  0.15241213  0.83363923  0.24005620     1.04600
Cu1640     Cu  0.18061626  0.80563798  0.23978407     1.04300
C1641       C  0.20489068  0.85835808  0.21422998     0.93500
C1642       C  0.12851242  0.78097240  0.26570987     0.92600
C1643       C  0.20574425  0.85842596  0.26526194     0.84800
C1644       C  0.12744095  0.78052482  0.21455654     0.91100
loop_ 
_geom_bond_atom_site_label_1 
_geom_bond_atom_site_label_2 
_geom_bond_distance 
_geom_bond_site_symmetry_2 
_ccdc_geom_bond_type 
N1            N2   1.325       .  A
N1            C5   1.351       .  A
N1           Cu9   2.096       .  S
N2            C3   1.340       .  A
N2           Cu8   2.069       .  S
C3            C4   1.378       .  A
C3            H6   1.082       .  S
C4            C5   1.387       .  A
C4          C430   1.470       .  S
C5            H7   1.082       .  S
Cu8          N11   2.067       .  S
Cu9          N19   2.095       .  S
Cu10         N12   2.061       .  S
Cu10         N18   2.062       .  S
N11          N12   1.319       .  A
N11          C15   1.347       .  A
N12          C13   1.343       .  A
C13          C14   1.381       .  A
C13          H16   1.082       .  S
C14          C15   1.384       .  A
C14         C225   1.479       .  S
C15          H17   1.082       .  S
N18          N19   1.323       .  A
N18          C22   1.338       .  A
N19          C20   1.353       .  A
C20          C21   1.389       .  A
C20          H23   1.082       .  S
C21          C22   1.379       .  A
C21          C69   1.475       .  S
C22          H24   1.082       .  S
N25          N26   1.325       .  A
N25          C29   1.348       .  A
N25         Cu33   2.086       .  S
N26          C27   1.341       .  A
N26         Cu32   2.067       .  S
C27          C28   1.378       .  A
C27          H30   1.082       .  S
C28          C29   1.384       .  A
C28         C417   1.466       .  S
C29          H31   1.082       .  S
Cu32         N35   2.064       .  S
Cu33         N43   2.085       .  S
Cu34         N36   2.056       .  S
Cu34         N42   2.057   1_655  S
N35          N36   1.319       .  A
N35          C39   1.344       .  A
N36          C37   1.343       .  A
C37          C38   1.380       .  A
C37          H40   1.082       .  S
C38          C39   1.382       .  A
C38         C308   1.474       .  S
C39          H41   1.082       .  S
N42          N43   1.322   1_455  A
N42          C46   1.337       .  A
N43          C44   1.352   1_655  A
C44          C45   1.388       .  A
C44          H47   1.082       .  S
C45          C46   1.378       .  A
C45          C52   1.471       .  S
C46          H48   1.082       .  S
N49          N50   1.324       .  A
N49          C53   1.352       .  A
N49         Cu57   2.091       .  S
N50          C51   1.337       .  A
N50         Cu56   2.062       .  S
C51          C52   1.378       .  A
C51          H54   1.082       .  S
C52          C53   1.387       .  A
C53          H55   1.082       .  S
Cu56         N59   2.061       .  S
Cu57         N67   2.092       .  S
Cu58         N60   2.069       .  S
Cu58         N66   2.070       .  S
N59          N60   1.318       .  A
N59          C63   1.345       .  A
N60          C61   1.345       .  A
C61          C62   1.386       .  A
C61          H64   1.082       .  S
C62          C63   1.384       .  A
C62        C1137   1.472       .  S
C63          H65   1.082       .  S
N66          N67   1.324       .  A
N66          C70   1.339       .  A
N67          C68   1.352       .  A
C68          C69   1.387       .  A
C68          H71   1.082       .  S
C69          C70   1.380       .  A
C70          H72   1.082       .  S
N73          N74   1.322   1_655  A
N73          C77   1.352   1_655  A
N73         Cu81   2.091       .  S
N74          C75   1.338       .  A
N74         Cu80   2.053   1_455  S
C75          C76   1.378       .  A
C75          H78   1.082       .  S
C76          C77   1.389       .  A
C76         C141   1.472       .  S
C77          H79   1.082       .  S
Cu80         N83   2.053       .  S
Cu81         N91   2.093       .  S
Cu82         N84   2.076       .  S
Cu82         N90   2.078       .  S
N83          N84   1.320       .  A
N83          C87   1.342       .  A
N84          C85   1.347       .  A
C85          C86   1.385       .  A
C85          H88   1.082       .  S
C86          C87   1.378       .  A
C86         C307   1.477       .  S
C87          H89   1.082       .  S
N90          N91   1.325       .  A
N90          C94   1.343       .  A
N91          C92   1.349       .  A
C92          C93   1.385       .  A
C92          H95   1.082       .  S
C93          C94   1.381       .  A
C93         C401   1.471       .  S
C94          H96   1.082       .  S
N97          N98   1.322       .  A
N97         C101   1.352       .  A
N97        Cu105   2.091   1_565  S
N98          C99   1.338       .  A
N98        Cu104   2.054   1_565  S
C99         C100   1.379       .  A
C99         H102   1.082       .  S
C100        C101   1.388       .  A
C100        C124   1.472       .  S
C101        H103   1.082       .  S
Cu104       N107   2.054       .  S
Cu105       N115   2.093       .  S
Cu106       N108   2.074       .  S
Cu106       N114   2.076       .  S
N107        N108   1.320       .  A
N107        C111   1.342       .  A
N108        C109   1.347       .  A
C109        C110   1.384       .  A
C109        H112   1.082       .  S
C110        C111   1.378       .  A
C110        C168   1.476       .  S
C111        H113   1.082       .  S
N114        N115   1.325       .  A
N114        C118   1.343       .  A
N115        C116   1.350       .  A
C116        C117   1.385       .  A
C116        H119   1.082       .  S
C117        C118   1.381       .  A
C117        C431   1.471       .  S
C118        H120   1.082       .  S
N121        N122   1.324       .  A
N121        C125   1.352       .  A
N121       Cu129   2.090       .  S
N122        C123   1.339       .  A
N122       Cu128   2.068       .  S
C123        C124   1.379       .  A
C123        H126   1.082       .  S
C124        C125   1.387       .  A
C125        H127   1.082       .  S
Cu128       N131   2.067       .  S
Cu129       N139   2.090       .  S
Cu130       N132   2.065       .  S
Cu130       N138   2.066       .  S
N131        N132   1.318       .  A
N131        C135   1.346       .  A
N132        C133   1.345       .  A
C133        C134   1.385       .  A
C133        H136   1.082       .  S
C134        C135   1.386       .  A
C134       C1079   1.474       .  S
C135        H137   1.082       .  S
N138        N139   1.324       .  A
N138        C142   1.338       .  A
N139        C140   1.352       .  A
C140        C141   1.387       .  A
C140        H143   1.082       .  S
C141        C142   1.379       .  A
C142        H144   1.082       .  S
N145        C150   1.355       .  A
N145        C149   1.354       .  A
N145        H177   1.039       .  S
N146        C153   1.351       .  A
N146        C154   1.353       .  A
N147        C152   1.351       .  A
N147        C151   1.351       .  A
N147        H178   1.037       .  S
N148        C155   1.350       .  A
N148        C156   1.352       .  A
C149        C157   1.388       .  A
C149        C165   1.415       .  A
C150        C166   1.415       .  A
C150        C158   1.387       .  A
C151        C159   1.387       .  A
C151        C168   1.411       .  A
C152        C167   1.411       .  A
C152        C160   1.387       .  A
C153        C165   1.413       .  A
C153        C161   1.386       .  A
C154        C168   1.414       .  A
C154        C162   1.386       .  A
C155        C163   1.386       .  A
C155        C166   1.410       .  A
C156        C164   1.387       .  A
C156        C167   1.412       .  A
C157        C158   1.372       .  A
C157        H169   1.082       .  S
C158        H170   1.082       .  S
C159        C160   1.375       .  A
C159        H171   1.082       .  S
C160        H172   1.082       .  S
C161        C162   1.371       .  A
C161        H173   1.082       .  S
C162        H174   1.082       .  S
C163        C164   1.370       .  A
C163        H175   1.082       .  S
C164        H176   1.082       .  S
C165        C192   1.480       .  S
C166        C274   1.479       .  S
C167        C332   1.473       .  S
N179        N180   1.321       .  A
N179        C183   1.348       .  A
N179       Cu187   2.086       .  S
N180        C181   1.341       .  A
N180       Cu186   2.052       .  S
C181        C182   1.378       .  A
C181        H184   1.082       .  S
C182        C183   1.387       .  A
C182        C224   1.480       .  S
C183        H185   1.082       .  S
Cu186       N189   2.052       .  S
Cu187       N197   2.087       .  S
Cu188       N190   2.080       .  S
Cu188       N196   2.081       .  S
N189        N190   1.321       .  A
N189        C193   1.340       .  A
N190        C191   1.348       .  A
C191        C192   1.387       .  A
C191        H194   1.082       .  S
C192        C193   1.378       .  A
C193        H195   1.082       .  S
N196        N197   1.324       .  A
N196        C200   1.346       .  A
N197        C198   1.347       .  A
C198        C199   1.385       .  A
C198        H201   1.082       .  S
C199        C200   1.383       .  A
C199        C956   1.475       .  S
C200        H202   1.082       .  S
N203        C208   1.354       .  A
N203        C207   1.354       .  A
N203        H235   1.039       .  S
N204        C211   1.351       .  A
N204        C212   1.352       .  A
N205        C210   1.353       .  A
N205        C209   1.353       .  A
N205        H236   1.036       .  S
N206        C213   1.352       .  A
N206        C214   1.352       .  A
C207        C215   1.387       .  A
C207        C223   1.413       .  A
C208        C224   1.414       .  A
C208        C216   1.387       .  A
C209        C217   1.387       .  A
C209        C226   1.416       .  A
C210        C225   1.415       .  A
C210        C218   1.387       .  A
C211        C223   1.411       .  A
C211        C219   1.385       .  A
C212        C226   1.415       .  A
C212        C220   1.388       .  A
C213        C221   1.386       .  A
C213        C224   1.412       .  A
C214        C222   1.388       .  A
C214        C225   1.415       .  A
C215        C216   1.373       .  A
C215        H227   1.082       .  S
C216        H228   1.082       .  S
C217        C218   1.377       .  A
C217        H229   1.082       .  S
C218        H230   1.082       .  S
C219        C220   1.369       .  A
C219        H231   1.082       .  S
C220        H232   1.082       .  S
C221        C222   1.370       .  A
C221        H233   1.082       .  S
C222        H234   1.082       .  S
C223        C240   1.479       .  S
C226        C356   1.480       .  S
N237        N238   1.321       .  A
N237        C241   1.348       .  A
N237       Cu245   2.081       .  S
N238        C239   1.341       .  A
N238       Cu244   2.053       .  S
C239        C240   1.378       .  A
C239        H242   1.082       .  S
C240        C241   1.385       .  A
C241        H243   1.082       .  S
Cu244       N247   2.053       .  S
Cu245       N255   2.082       .  S
Cu246       N248   2.078       .  S
Cu246       N254   2.079       .  S
N247        N248   1.321       .  A
N247        C251   1.340       .  A
N248        C249   1.348       .  A
C249        C250   1.386       .  A
C249        H252   1.082       .  S
C250        C251   1.378       .  A
C250        C306   1.479       .  S
C251        H253   1.082       .  S
N254        N255   1.324       .  A
N254        C258   1.345       .  A
N255        C256   1.347       .  A
C256        C257   1.384       .  A
C256        H259   1.082       .  S
C257        C258   1.383       .  A
C257       C1202   1.474       .  S
C258        H260   1.082       .  S
N261        N262   1.322       .  A
N261        C265   1.347       .  A
N261       Cu269   2.076       .  S
N262        C263   1.342       .  A
N262       Cu268   2.061       .  S
C263        C264   1.380       .  A
C263        H266   1.082       .  S
C264        C265   1.384       .  A
C264        C305   1.480       .  S
C265        H267   1.082       .  S
Cu268       N271   2.061       .  S
Cu269       N279   2.076       .  S
Cu270       N272   2.075       .  S
Cu270       N278   2.076       .  S
N271        N272   1.322       .  A
N271        C275   1.341       .  A
N272        C273   1.347       .  A
C273        C274   1.384       .  A
C273        H276   1.082       .  S
C274        C275   1.379       .  A
C275        H277   1.082       .  S
N278        N279   1.323       .  A
N278        C282   1.345       .  A
N279        C280   1.345       .  A
C280        C281   1.382       .  A
C280        H283   1.082       .  S
C281        C282   1.383       .  A
C281        C884   1.471       .  S
C282        H284   1.082       .  S
N285        C290   1.354       .  A
N285        C289   1.355       .  A
N285        H317   1.039       .  S
N286        C293   1.351       .  A
N286        C294   1.352       .  A
N287        C292   1.352       .  A
N287        C291   1.351       .  A
N287        H318   1.037       .  S
N288        C295   1.351       .  A
N288        C296   1.353       .  A
C289        C297   1.387       .  A
C289        C305   1.415       .  A
C290        C306   1.416       .  A
C290        C298   1.388       .  A
C291        C299   1.387       .  A
C291        C308   1.411       .  A
C292        C307   1.411       .  A
C292        C300   1.387       .  A
C293        C305   1.410       .  A
C293        C301   1.386       .  A
C294        C308   1.412       .  A
C294        C302   1.387       .  A
C295        C303   1.386       .  A
C295        C306   1.412       .  A
C296        C304   1.386       .  A
C296        C307   1.414       .  A
C297        C298   1.372       .  A
C297        H309   1.082       .  S
C298        H310   1.082       .  S
C299        C300   1.375       .  A
C299        H311   1.082       .  S
C300        H312   1.082       .  S
C301        C302   1.370       .  A
C301        H313   1.082       .  S
C302        H314   1.082       .  S
C303        C304   1.371       .  A
C303        H315   1.082       .  S
C304        H316   1.082       .  S
N319        N320   1.325       .  A
N319        C323   1.349       .  A
N319       Cu327   2.089       .  S
N320        C321   1.341       .  A
N320       Cu326   2.068       .  S
C321        C322   1.379       .  A
C321        H324   1.082       .  S
C322        C323   1.384       .  A
C322        C416   1.467       .  S
C323        H325   1.082       .  S
Cu326       N329   2.066       .  S
Cu327       N337   2.088   1_545  S
Cu328       N330   2.053       .  S
Cu328       N336   2.054   1_545  S
N329        N330   1.319       .  A
N329        C333   1.345       .  A
N330        C331   1.343       .  A
C331        C332   1.379       .  A
C331        H334   1.082       .  S
C332        C333   1.382       .  A
C333        H335   1.082       .  S
N336        N337   1.322       .  A
N336        C340   1.336       .  A
N337        C338   1.352       .  A
C338        C339   1.389       .  A
C338        H341   1.082       .  S
C339        C340   1.378       .  A
C339        C370   1.472       .  S
C340        H342   1.082       .  S
N343        N344   1.325       .  A
N343        C347   1.352       .  A
N343       Cu351   2.099       .  S
N344        C345   1.341       .  A
N344       Cu350   2.070       .  S
C345        C346   1.378       .  A
C345        H348   1.082       .  S
C346        C347   1.388       .  A
C346        C404   1.471       .  S
C347        H349   1.082       .  S
Cu350       N353   2.069       .  S
Cu351       N361   2.098       .  S
Cu352       N354   2.058       .  S
Cu352       N360   2.058       .  S
N353        N354   1.319       .  A
N353        C357   1.347       .  A
N354        C355   1.342       .  A
C355        C356   1.381       .  A
C355        H358   1.082       .  S
C356        C357   1.385       .  A
C357        H359   1.082       .  S
N360        N361   1.323       .  A
N360        C364   1.338       .  A
N361        C362   1.353       .  A
C362        C363   1.390       .  A
C362        H365   1.082       .  S
C363        C364   1.378       .  A
C363        C387   1.474       .  S
C364        H366   1.082       .  S
N367        N368   1.324       .  A
N367        C371   1.352       .  A
N367       Cu375   2.089       .  S
N368        C369   1.338       .  A
N368       Cu374   2.064       .  S
C369        C370   1.379       .  A
C369        H372   1.082       .  S
C370        C371   1.387       .  A
C371        H373   1.082       .  S
Cu374       N377   2.063       .  S
Cu375       N385   2.090       .  S
Cu376       N378   2.066       .  S
Cu376       N384   2.068       .  S
N377        N378   1.318       .  A
N377        C381   1.345       .  A
N378        C379   1.345       .  A
C379        C380   1.385       .  A
C379        H382   1.082       .  S
C380        C381   1.384       .  A
C380       C1021   1.471       .  S
C381        H383   1.082       .  S
N384        N385   1.324       .  A
N384        C388   1.339       .  A
N385        C386   1.352       .  A
C386        C387   1.387       .  A
C386        H389   1.082       .  S
C387        C388   1.380       .  A
C388        H390   1.082       .  S
O391       Cu399   2.027       .  S
O391        C401   1.279       .  A
O392       Cu399   2.022       .  S
O392        C402   1.278       .  A
O393       Cu399   2.023       .  S
O393        C403   1.279       .  A
O394       Cu399   2.028       .  S
O394        C404   1.279       .  A
O395       Cu400   1.996       .  S
O395        C404   1.277       .  A
O396       Cu400   1.996       .  S
O396        C403   1.276       .  A
O397       Cu400   1.994       .  S
O397        C402   1.276       .  A
O398       Cu400   1.998       .  S
O398        C401   1.276       .  A
Cu399      Cu400   2.375       .  S
C402        C590   1.468       .  S
C403        C771   1.468       .  S
O405       Cu413   2.024       .  S
O405        C415   1.279       .  A
O406       Cu413   2.023       .  S
O406        C416   1.279       .  A
O407       Cu413   2.021       .  S
O407        C417   1.278       .  A
O408       Cu413   2.020       .  S
O408        C418   1.278       .  A
O409       Cu414   1.993       .  S
O409        C418   1.276       .  A
O410       Cu414   1.993       .  S
O410        C417   1.276       .  A
O411       Cu414   1.994       .  S
O411        C416   1.276       .  A
O412       Cu414   1.993       .  S
O412        C415   1.276       .  A
Cu413      Cu414   2.377       .  S
C415        C460   1.468       .  S
C418        C566   1.466       .  S
O419       Cu427   2.025       .  S
O419        C429   1.279       .  A
O420       Cu427   2.027       .  S
O420        C430   1.279       .  A
O421       Cu427   2.029       .  S
O421        C431   1.280       .  A
O422       Cu427   2.025       .  S
O422        C432   1.279       .  A
O423       Cu428   1.992       .  S
O423        C432   1.276       .  A
O424       Cu428   1.996       .  S
O424        C431   1.276       .  A
O425       Cu428   1.992       .  S
O425        C430   1.276       .  A
O426       Cu428   1.994       .  S
O426        C429   1.276       .  A
Cu427      Cu428   2.376       .  S
C429        C795   1.468       .  S
C432        C436   1.468       .  S
N433        N434   1.325       .  A
N433        C437   1.350       .  A
N433       Cu441   2.094       .  S
N434        C435   1.340       .  A
N434       Cu440   2.067       .  S
C435        C436   1.377       .  A
C435        H438   1.082       .  S
C436        C437   1.386       .  A
C437        H439   1.082       .  S
Cu440       N443   2.066       .  S
Cu441       N451   2.094       .  S
Cu442       N444   2.066       .  S
Cu442       N450   2.067       .  S
N443        N444   1.319       .  A
N443        C447   1.346       .  A
N444        C445   1.344       .  A
C445        C446   1.383       .  A
C445        H448   1.082       .  S
C446        C447   1.384       .  A
C446        C716   1.479       .  S
C447        H449   1.082       .  S
N450        N451   1.323       .  A
N450        C454   1.339       .  A
N451        C452   1.353       .  A
C452        C453   1.389       .  A
C452        H455   1.082       .  S
C453        C454   1.379       .  A
C453        C501   1.476       .  S
C454        H456   1.082       .  S
N457        N458   1.325       .  A
N457        C461   1.349       .  A
N457       Cu465   2.088       .  S
N458        C459   1.341       .  A
N458       Cu464   2.071       .  S
C459        C460   1.379       .  A
C459        H462   1.082       .  S
C460        C461   1.385       .  A
C461        H463   1.082       .  S
Cu464       N467   2.069       .  S
Cu465       N475   2.087       .  S
Cu466       N468   2.054       .  S
Cu466       N474   2.055   1_655  S
N467        N468   1.319       .  A
N467        C471   1.345       .  A
N468        C469   1.343       .  A
C469        C470   1.379       .  A
C469        H472   1.082       .  S
C470        C471   1.383       .  A
C470        C658   1.475       .  S
C471        H473   1.082       .  S
N474        N475   1.322   1_455  A
N474        C478   1.338       .  A
N475        C476   1.351   1_655  A
C476        C477   1.387       .  A
C476        H479   1.082       .  S
C477        C478   1.378       .  A
C477        C484   1.470       .  S
C478        H480   1.082       .  S
N481        N482   1.325       .  A
N481        C485   1.351       .  A
N481       Cu489   2.093       .  S
N482        C483   1.338       .  A
N482       Cu488   2.064       .  S
C483        C484   1.378       .  A
C483        H486   1.082       .  S
C484        C485   1.386       .  A
C485        H487   1.082       .  S
Cu488       N491   2.062       .  S
Cu489       N499   2.093       .  S
Cu490       N492   2.068       .  S
Cu490       N498   2.068       .  S
N491        N492   1.318       .  A
N491        C495   1.345       .  A
N492        C493   1.344       .  A
C493        C494   1.385       .  A
C493        H496   1.082       .  S
C494        C495   1.384       .  A
C494       C1555   1.471       .  S
C495        H497   1.082       .  S
N498        N499   1.323       .  A
N498        C502   1.339       .  A
N499        C500   1.353       .  A
C500        C501   1.389       .  A
C500        H503   1.082       .  S
C501        C502   1.380       .  A
C502        H504   1.082       .  S
N505        C510   1.356       .  A
N505        C509   1.355       .  A
N505        H537   1.039       .  S
N506        C513   1.350       .  A
N506        C514   1.352       .  A
N507        C512   1.351       .  A
N507        C511   1.352       .  A
N507        H538   1.037       .  S
N508        C515   1.351       .  A
N508        C516   1.352       .  A
C509        C517   1.387       .  A
C509        C525   1.416       .  A
C510        C526   1.417       .  A
C510        C518   1.387       .  A
C511        C519   1.387       .  A
C511        C528   1.411       .  A
C512        C527   1.411       .  A
C512        C520   1.387       .  A
C513        C525   1.410       .  A
C513        C521   1.386       .  A
C514        C528   1.412       .  A
C514        C522   1.386       .  A
C515        C523   1.387       .  A
C515        C526   1.412       .  A
C516        C524   1.386       .  A
C516        C527   1.412       .  A
C517        C518   1.373       .  A
C517        H529   1.082       .  S
C518        H530   1.082       .  S
C519        C520   1.374       .  A
C519        H531   1.082       .  S
C520        H532   1.082       .  S
C521        C522   1.370       .  A
C521        H533   1.082       .  S
C522        H534   1.082       .  S
C523        C524   1.371       .  A
C523        H535   1.082       .  S
C524        H536   1.082       .  S
C525        C740   1.478       .  S
C526        C552   1.482       .  S
C527        C576   1.474       .  S
C528        C788   1.476       .  S
N539        N540   1.322       .  A
N539        C543   1.347       .  A
N539       Cu547   2.076       .  S
N540        C541   1.342       .  A
N540       Cu546   2.065       .  S
C541        C542   1.381       .  A
C541        H544   1.082       .  S
C542        C543   1.384       .  A
C542        C655   1.483       .  S
C543        H545   1.082       .  S
Cu546       N549   2.065       .  S
Cu547       N557   2.077   1_556  S
Cu548       N550   2.073       .  S
Cu548       N556   2.074   1_556  S
N549        N550   1.322       .  A
N549        C553   1.342       .  A
N550        C551   1.347       .  A
C551        C552   1.384       .  A
C551        H554   1.082       .  S
C552        C553   1.381       .  A
C553        H555   1.082       .  S
N556        N557   1.323       .  A
N556        C560   1.345       .  A
N557        C558   1.345       .  A
C558        C559   1.384       .  A
C558        H561   1.082       .  S
C559        C560   1.382       .  A
C559       C1302   1.471       .  S
C560        H562   1.082       .  S
N563        N564   1.325       .  A
N563        C567   1.349       .  A
N563       Cu571   2.087       .  S
N564        C565   1.341       .  A
N564       Cu570   2.068       .  S
C565        C566   1.378       .  A
C565        H568   1.082       .  S
C566        C567   1.384       .  A
C567        H569   1.082       .  S
Cu570       N573   2.066       .  S
Cu571       N581   2.086   1_545  S
Cu572       N574   2.053       .  S
Cu572       N580   2.055   1_545  S
N573        N574   1.319       .  A
N573        C577   1.345       .  A
N574        C575   1.342       .  A
C575        C576   1.378       .  A
C575        H578   1.082       .  S
C576        C577   1.382       .  A
C577        H579   1.082       .  S
N580        N581   1.322       .  A
N580        C584   1.338       .  A
N581        C582   1.351       .  A
C582        C583   1.387       .  A
C582        H585   1.082       .  S
C583        C584   1.378       .  A
C583        C614   1.470       .  S
C584        H586   1.082       .  S
N587        N588   1.326       .  A
N587        C591   1.350       .  A
N587       Cu595   2.096       .  S
N588        C589   1.340       .  A
N588       Cu594   2.068       .  S
C589        C590   1.377       .  A
C589        H592   1.082       .  S
C590        C591   1.386       .  A
C591        H593   1.082       .  S
Cu594       N597   2.067       .  S
Cu595       N605   2.095       .  S
Cu596       N598   2.065       .  S
Cu596       N604   2.066       .  S
N597        N598   1.319       .  A
N597        C601   1.347       .  A
N598        C599   1.344       .  A
C599        C600   1.383       .  A
C599        H602   1.082       .  S
C600        C601   1.385       .  A
C600        C715   1.480       .  S
C601        H603   1.082       .  S
N604        N605   1.323       .  A
N604        C608   1.339       .  A
N605        C606   1.353       .  A
C606        C607   1.390       .  A
C606        H609   1.082       .  S
C607        C608   1.379       .  A
C607        C631   1.476       .  S
C608        H610   1.082       .  S
N611        N612   1.324       .  A
N611        C615   1.351       .  A
N611       Cu619   2.092       .  S
N612        C613   1.339       .  A
N612       Cu618   2.063       .  S
C613        C614   1.378       .  A
C613        H616   1.082       .  S
C614        C615   1.386       .  A
C615        H617   1.082       .  S
Cu618       N621   2.061       .  S
Cu619       N629   2.092       .  S
Cu620       N622   2.072       .  S
Cu620       N628   2.073       .  S
N621        N622   1.319       .  A
N621        C625   1.345       .  A
N622        C623   1.345       .  A
C623        C624   1.385       .  A
C623        H626   1.082       .  S
C624        C625   1.384       .  A
C624       C1463   1.472       .  S
C625        H627   1.082       .  S
N628        N629   1.324       .  A
N628        C632   1.340       .  A
N629        C630   1.353       .  A
C630        C631   1.388       .  A
C630        H633   1.082       .  S
C631        C632   1.381       .  A
C632        H634   1.082       .  S
N635        C640   1.355       .  A
N635        C639   1.356       .  A
N635        H667   1.039       .  S
N636        C643   1.351       .  A
N636        C644   1.352       .  A
N637        C642   1.352       .  A
N637        C641   1.351       .  A
N637        H668   1.036       .  S
N638        C645   1.350       .  A
N638        C646   1.352       .  A
C639        C647   1.387       .  A
C639        C655   1.417       .  A
C640        C656   1.416       .  A
C640        C648   1.387       .  A
C641        C649   1.387       .  A
C641        C658   1.412       .  A
C642        C657   1.412       .  A
C642        C650   1.387       .  A
C643        C655   1.412       .  A
C643        C651   1.387       .  A
C644        C658   1.413       .  A
C644        C652   1.386       .  A
C645        C653   1.386       .  A
C645        C656   1.411       .  A
C646        C654   1.387       .  A
C646        C657   1.413       .  A
C647        C648   1.373       .  A
C647        H659   1.082       .  S
C648        H660   1.082       .  S
C649        C650   1.374       .  A
C649        H661   1.082       .  S
C650        H662   1.082       .  S
C651        C652   1.371       .  A
C651        H663   1.082       .  S
C652        H664   1.082       .  S
C653        C654   1.370       .  A
C653        H665   1.082       .  S
C654        H666   1.082       .  S
C656        C672   1.479       .  S
C657        C764   1.476       .  S
N669        N670   1.321       .  A
N669        C673   1.347       .  A
N669       Cu677   2.075       .  S
N670        C671   1.341       .  A
N670       Cu676   2.056       .  S
C671        C672   1.379       .  A
C671        H674   1.082       .  S
C672        C673   1.385       .  A
C673        H675   1.082       .  S
Cu676       N679   2.056       .  S
Cu677       N687   2.077   1_556  S
Cu678       N680   2.072       .  S
Cu678       N686   2.073   1_556  S
N679        N680   1.321       .  A
N679        C683   1.341       .  A
N680        C681   1.346       .  A
C681        C682   1.384       .  A
C681        H684   1.082       .  S
C682        C683   1.378       .  A
C682        C714   1.477       .  S
C683        H685   1.082       .  S
N686        N687   1.324       .  A
N686        C690   1.344       .  A
N687        C688   1.345       .  A
C688        C689   1.382       .  A
C688        H691   1.082       .  S
C689        C690   1.382       .  A
C689       C1620   1.470       .  S
C690        H692   1.082       .  S
N693        C698   1.353       .  A
N693        C697   1.353       .  A
N693        H725   1.039       .  S
N694        C701   1.351       .  A
N694        C702   1.352       .  A
N695        C700   1.353       .  A
N695        C699   1.353       .  A
N695        H726   1.037       .  S
N696        C703   1.351       .  A
N696        C704   1.352       .  A
C697        C705   1.387       .  A
C697        C713   1.413       .  A
C698        C714   1.413       .  A
C698        C706   1.387       .  A
C699        C707   1.387       .  A
C699        C716   1.415       .  A
C700        C715   1.415       .  A
C700        C708   1.387       .  A
C701        C713   1.410       .  A
C701        C709   1.385       .  A
C702        C716   1.414       .  A
C702        C710   1.387       .  A
C703        C711   1.385       .  A
C703        C714   1.411       .  A
C704        C712   1.388       .  A
C704        C715   1.414       .  A
C705        C706   1.372       .  A
C705        H717   1.082       .  S
C706        H718   1.082       .  S
C707        C708   1.378       .  A
C707        H719   1.082       .  S
C708        H720   1.082       .  S
C709        C710   1.370       .  A
C709        H721   1.082       .  S
C710        H722   1.082       .  S
C711        C712   1.370       .  A
C711        H723   1.082       .  S
C712        H724   1.082       .  S
C713        C730   1.476       .  S
N727        N728   1.322       .  A
N727        C731   1.347       .  A
N727       Cu735   2.074       .  S
N728        C729   1.340       .  A
N728       Cu734   2.055       .  S
C729        C730   1.377       .  A
C729        H732   1.082       .  S
C730        C731   1.384       .  A
C731        H733   1.082       .  S
Cu734       N737   2.055       .  S
Cu735       N745   2.076   1_556  S
Cu736       N738   2.078       .  S
Cu736       N744   2.079   1_556  S
N737        N738   1.321       .  A
N737        C741   1.341       .  A
N738        C739   1.348       .  A
C739        C740   1.384       .  A
C739        H742   1.082       .  S
C740        C741   1.378       .  A
C741        H743   1.082       .  S
N744        N745   1.324       .  A
N744        C748   1.345       .  A
N745        C746   1.345       .  A
C746        C747   1.383       .  A
C746        H749   1.082       .  S
C747        C748   1.383       .  A
C747       C1374   1.472       .  S
C748        H750   1.082       .  S
N751        N752   1.322       .  A
N751        C755   1.351   1_655  A
N751       Cu759   2.085       .  S
N752        C753   1.337   1_655  A
N752       Cu758   2.051       .  S
C753        C754   1.377       .  A
C753        H756   1.082       .  S
C754        C755   1.388       .  A
C754        C819   1.469       .  S
C755        H757   1.082       .  S
Cu758       N761   2.051       .  S
Cu759       N769   2.087       .  S
Cu760       N762   2.072       .  S
Cu760       N768   2.074       .  S
N761        N762   1.319       .  A
N761        C765   1.342       .  A
N762        C763   1.346       .  A
C763        C764   1.385       .  A
C763        H766   1.082       .  S
C764        C765   1.379       .  A
C765        H767   1.082       .  S
N768        N769   1.325       .  A
N768        C772   1.342       .  A
N769        C770   1.348       .  A
C770        C771   1.384       .  A
C770        H773   1.082       .  S
C771        C772   1.380       .  A
C772        H774   1.082       .  S
N775        N776   1.322       .  A
N775        C779   1.351       .  A
N775       Cu783   2.085   1_565  S
N776        C777   1.337       .  A
N776       Cu782   2.052   1_565  S
C777        C778   1.377       .  A
C777        H780   1.082       .  S
C778        C779   1.388       .  A
C778        C802   1.469       .  S
C779        H781   1.082       .  S
Cu782       N785   2.051       .  S
Cu783       N793   2.086       .  S
Cu784       N786   2.073       .  S
Cu784       N792   2.075       .  S
N785        N786   1.319       .  A
N785        C789   1.342       .  A
N786        C787   1.346       .  A
C787        C788   1.384       .  A
C787        H790   1.082       .  S
C788        C789   1.378       .  A
C789        H791   1.082       .  S
N792        N793   1.325       .  A
N792        C796   1.342       .  A
N793        C794   1.349       .  A
C794        C795   1.384       .  A
C794        H797   1.082       .  S
C795        C796   1.380       .  A
C796        H798   1.082       .  S
N799        N800   1.324       .  A
N799        C803   1.350       .  A
N799       Cu807   2.082       .  S
N800        C801   1.338       .  A
N800       Cu806   2.067       .  S
C801        C802   1.379       .  A
C801        H804   1.082       .  S
C802        C803   1.385       .  A
C803        H805   1.082       .  S
Cu806       N809   2.066       .  S
Cu807       N817   2.082       .  S
Cu808       N810   2.066       .  S
Cu808       N816   2.067       .  S
N809        N810   1.318       .  A
N809        C813   1.345       .  A
N810        C811   1.345       .  A
C811        C812   1.385       .  A
C811        H814   1.082       .  S
C812        C813   1.385       .  A
C812       C1405   1.472       .  S
C813        H815   1.082       .  S
N816        N817   1.324       .  A
N816        C820   1.338       .  A
N817        C818   1.350       .  A
C818        C819   1.385       .  A
C818        H821   1.082       .  S
C819        C820   1.379       .  A
C820        H822   1.082       .  S
N823        N824   1.322       .  A
N823        C827   1.351       .  A
N823       Cu831   2.090   1_655  S
N824        C825   1.338       .  A
N824       Cu830   2.054   1_655  S
C825        C826   1.378       .  A
C825        H828   1.082       .  S
C826        C827   1.388       .  A
C826        C874   1.472       .  S
C827        H829   1.082       .  S
Cu830       N833   2.053       .  S
Cu831       N841   2.092       .  S
Cu832       N834   2.071       .  S
Cu832       N840   2.073       .  S
N833        N834   1.319       .  A
N833        C837   1.342       .  A
N834        C835   1.346       .  A
C835        C836   1.384       .  A
C835        H838   1.082       .  S
C836        C837   1.378       .  A
C836       C1048   1.476       .  S
C837        H839   1.082       .  S
N840        N841   1.325       .  A
N840        C844   1.341       .  A
N841        C842   1.350       .  A
C842        C843   1.385       .  A
C842        H845   1.082       .  S
C843        C844   1.379       .  A
C843       C1226   1.469       .  S
C844        H846   1.082       .  S
N847        N848   1.322       .  A
N847        C851   1.351       .  A
N847       Cu855   2.088   1_545  S
N848        C849   1.339       .  A
N848       Cu854   2.056   1_545  S
C849        C850   1.379       .  A
C849        H852   1.082       .  S
C850        C851   1.387       .  A
C850        C891   1.471       .  S
C851        H853   1.082       .  S
Cu854       N857   2.055       .  S
Cu855       N865   2.090       .  S
Cu856       N858   2.073       .  S
Cu856       N864   2.075       .  S
N857        N858   1.320       .  A
N857        C861   1.342       .  A
N858        C859   1.347       .  A
C859        C860   1.384       .  A
C859        H862   1.082       .  S
C860        C861   1.378       .  A
C860        C989   1.476       .  S
C861        H863   1.082       .  S
N864        N865   1.325       .  A
N864        C868   1.341       .  A
N865        C866   1.350       .  A
C866        C867   1.386       .  A
C866        H869   1.082       .  S
C867        C868   1.380       .  A
C867       C1239   1.470       .  S
C868        H870   1.082       .  S
N871        N872   1.324       .  A
N871        C875   1.351       .  A
N871       Cu879   2.089       .  S
N872        C873   1.339       .  A
N872       Cu878   2.067       .  S
C873        C874   1.379       .  A
C873        H876   1.082       .  S
C874        C875   1.386       .  A
C875        H877   1.082       .  S
Cu878       N881   2.065       .  S
Cu879       N889   2.089       .  S
Cu880       N882   2.062       .  S
Cu880       N888   2.064       .  S
N881        N882   1.318       .  A
N881        C885   1.344       .  A
N882        C883   1.345       .  A
C883        C884   1.384       .  A
C883        H886   1.082       .  S
C884        C885   1.384       .  A
C885        H887   1.082       .  S
N888        N889   1.324       .  A
N888        C892   1.339       .  A
N889        C890   1.351       .  A
C890        C891   1.386       .  A
C890        H893   1.082       .  S
C891        C892   1.378       .  A
C892        H894   1.082       .  S
N895        N896   1.326       .  A
N895        C899   1.352       .  A
N895       Cu903   2.101       .  S
N896        C897   1.342       .  A
N896       Cu902   2.078       .  S
C897        C898   1.380       .  A
C897        H900   1.082       .  S
C898        C899   1.387       .  A
C898       C1223   1.474       .  S
C899        H901   1.082       .  S
Cu902       N905   2.076       .  S
Cu903       N913   2.100       .  S
Cu904       N906   2.058       .  S
Cu904       N912   2.059       .  S
N905        N906   1.320       .  A
N905        C909   1.347       .  A
N906        C907   1.343       .  A
C907        C908   1.379       .  A
C907        H910   1.082       .  S
C908        C909   1.385       .  A
C908       C1105   1.478       .  S
C909        H911   1.082       .  S
N912        N913   1.322       .  A
N912        C916   1.339       .  A
N913        C914   1.353       .  A
C914        C915   1.390       .  A
C914        H917   1.082       .  S
C915        C916   1.379       .  A
C915        C963   1.476       .  S
C916        H918   1.082       .  S
N919        N920   1.326       .  A
N919        C923   1.349       .  A
N919       Cu927   2.094       .  S
N920        C921   1.342       .  A
N920       Cu926   2.072       .  S
C921        C922   1.379       .  A
C921        H924   1.082       .  S
C922        C923   1.385       .  A
C922       C1643   1.469       .  S
C923        H925   1.082       .  S
Cu926       N929   2.070       .  S
Cu927       N937   2.093   1_565  S
Cu928       N930   2.057       .  S
Cu928       N936   2.057   1_565  S
N929        N930   1.319       .  A
N929        C933   1.346       .  A
N930        C931   1.343       .  A
C931        C932   1.380       .  A
C931        H934   1.082       .  S
C932        C933   1.384       .  A
C932        C990   1.478       .  S
C933        H935   1.082       .  S
N936        N937   1.322       .  A
N936        C940   1.338       .  A
N937        C938   1.353       .  A
C938        C939   1.390       .  A
C938        H941   1.082       .  S
C939        C940   1.378       .  A
C939        C946   1.474       .  S
C940        H942   1.082       .  S
N943        N944   1.324       .  A
N943        C947   1.352       .  A
N943       Cu951   2.093       .  S
N944        C945   1.340       .  A
N944       Cu950   2.075       .  S
C945        C946   1.381       .  A
C945        H948   1.082       .  S
C946        C947   1.387       .  A
C947        H949   1.082       .  S
Cu950       N953   2.074       .  S
Cu951       N961   2.094       .  S
Cu952       N954   2.070       .  S
Cu952       N960   2.072       .  S
N953        N954   1.319       .  A
N953        C957   1.346       .  A
N954        C955   1.346       .  A
C955        C956   1.385       .  A
C955        H958   1.082       .  S
C956        C957   1.386       .  A
C957        H959   1.082       .  S
N960        N961   1.324       .  A
N960        C964   1.340       .  A
N961        C962   1.352       .  A
C962        C963   1.388       .  A
C962        H965   1.082       .  S
C963        C964   1.381       .  A
C964        H966   1.082       .  S
N967        C972   1.355       .  A
N967        C971   1.355       .  A
N967        H999   1.039       .  S
N968        C975   1.350       .  A
N968        C976   1.352       .  A
N969        C974   1.351       .  A
N969        C973   1.353       .  A
N969       H1000   1.036       .  S
N970        C977   1.353       .  A
N970        C978   1.353       .  A
C971        C979   1.387       .  A
C971        C987   1.416       .  A
C972        C988   1.416       .  A
C972        C980   1.387       .  A
C973        C981   1.387       .  A
C973        C990   1.414       .  A
C974        C989   1.413       .  A
C974        C982   1.387       .  A
C975        C987   1.411       .  A
C975        C983   1.386       .  A
C976        C990   1.413       .  A
C976        C984   1.386       .  A
C977        C985   1.386       .  A
C977        C988   1.413       .  A
C978        C986   1.387       .  A
C978        C989   1.415       .  A
C979        C980   1.374       .  A
C979        H991   1.082       .  S
C980        H992   1.082       .  S
C981        C982   1.376       .  A
C981        H993   1.082       .  S
C982        H994   1.082       .  S
C983        C984   1.371       .  A
C983        H995   1.082       .  S
C984        H996   1.082       .  S
C985        C986   1.371       .  A
C985        H997   1.082       .  S
C986        H998   1.082       .  S
C987       C1072   1.478       .  S
C988       C1014   1.486       .  S
N1001      N1002   1.321       .  A
N1001      C1005   1.347       .  A
N1001     Cu1009   2.072       .  S
N1002      C1003   1.342       .  A
N1002     Cu1008   2.065       .  S
C1003      C1004   1.380       .  A
C1003      H1006   1.082       .  S
C1004      C1005   1.385       .  A
C1004      C1103   1.481       .  S
C1005      H1007   1.082       .  S
Cu1008     N1011   2.065       .  S
Cu1009     N1019   2.073       .  S
Cu1010     N1012   2.084       .  S
Cu1010     N1018   2.085       .  S
N1011      N1012   1.322       .  A
N1011      C1015   1.343       .  A
N1012      C1013   1.349       .  A
C1013      C1014   1.387       .  A
C1013      H1016   1.082       .  S
C1014      C1015   1.381       .  A
C1015      H1017   1.082       .  S
N1018      N1019   1.324       .  A
N1018      C1022   1.346       .  A
N1019      C1020   1.345       .  A
C1020      C1021   1.382       .  A
C1020      H1023   1.082       .  S
C1021      C1022   1.384       .  A
C1022      H1024   1.082       .  S
N1025      C1030   1.355       .  A
N1025      C1029   1.356       .  A
N1025      H1057   1.039       .  S
N1026      C1033   1.353       .  A
N1026      C1034   1.353       .  A
N1027      C1032   1.353       .  A
N1027      C1031   1.351       .  A
N1027      H1058   1.036       .  S
N1028      C1035   1.351       .  A
N1028      C1036   1.352       .  A
C1029      C1037   1.387       .  A
C1029      C1045   1.418       .  A
C1030      C1046   1.417       .  A
C1030      C1038   1.387       .  A
C1031      C1039   1.388       .  A
C1031      C1048   1.413       .  A
C1032      C1047   1.414       .  A
C1032      C1040   1.387       .  A
C1033      C1045   1.414       .  A
C1033      C1041   1.386       .  A
C1034      C1048   1.415       .  A
C1034      C1042   1.387       .  A
C1035      C1043   1.386       .  A
C1035      C1046   1.412       .  A
C1036      C1044   1.387       .  A
C1036      C1047   1.414       .  A
C1037      C1038   1.374       .  A
C1037      H1049   1.082       .  S
C1038      H1050   1.082       .  S
C1039      C1040   1.376       .  A
C1039      H1051   1.082       .  S
C1040      H1052   1.082       .  S
C1041      C1042   1.371       .  A
C1041      H1053   1.082       .  S
C1042      H1054   1.082       .  S
C1043      C1044   1.370       .  A
C1043      H1055   1.082       .  S
C1044      H1056   1.082       .  S
C1045      C1130   1.487       .  S
C1046      C1062   1.480       .  S
C1047      C1178   1.478       .  S
N1059      N1060   1.322       .  A
N1059      C1063   1.349       .  A
N1059     Cu1067   2.084       .  S
N1060      C1061   1.341       .  A
N1060     Cu1066   2.056       .  S
C1061      C1062   1.377       .  A
C1061      H1064   1.082       .  S
C1062      C1063   1.386       .  A
C1063      H1065   1.082       .  S
Cu1066     N1069   2.056       .  S
Cu1067     N1077   2.085       .  S
Cu1068     N1070   2.081       .  S
Cu1068     N1076   2.082       .  S
N1069      N1070   1.322       .  A
N1069      C1073   1.341       .  A
N1070      C1071   1.348       .  A
C1071      C1072   1.385       .  A
C1071      H1074   1.082       .  S
C1072      C1073   1.377       .  A
C1073      H1075   1.082       .  S
N1076      N1077   1.325       .  A
N1076      C1080   1.346       .  A
N1077      C1078   1.346       .  A
C1078      C1079   1.384       .  A
C1078      H1081   1.082       .  S
C1079      C1080   1.383       .  A
C1080      H1082   1.082       .  S
N1083      C1088   1.355       .  A
N1083      C1087   1.354       .  A
N1083      H1115   1.040       .  S
N1084      C1091   1.351       .  A
N1084      C1092   1.352       .  A
N1085      C1090   1.352       .  A
N1085      C1089   1.352       .  A
N1085      H1116   1.037       .  S
N1086      C1093   1.351       .  A
N1086      C1094   1.352       .  A
C1087      C1095   1.387       .  A
C1087      C1103   1.415       .  A
C1088      C1104   1.415       .  A
C1088      C1096   1.387       .  A
C1089      C1097   1.387       .  A
C1089      C1106   1.413       .  A
C1090      C1105   1.413       .  A
C1090      C1098   1.387       .  A
C1091      C1103   1.411       .  A
C1091      C1099   1.386       .  A
C1092      C1106   1.414       .  A
C1092      C1100   1.387       .  A
C1093      C1101   1.386       .  A
C1093      C1104   1.411       .  A
C1094      C1102   1.387       .  A
C1094      C1105   1.413       .  A
C1095      C1096   1.374       .  A
C1095      H1107   1.082       .  S
C1096      H1108   1.082       .  S
C1097      C1098   1.377       .  A
C1097      H1109   1.082       .  S
C1098      H1110   1.082       .  S
C1099      C1100   1.371       .  A
C1099      H1111   1.082       .  S
C1100      H1112   1.082       .  S
C1101      C1102   1.371       .  A
C1101      H1113   1.082       .  S
C1102      H1114   1.082       .  S
C1104      C1120   1.481       .  S
C1106      C1154   1.477       .  S
N1117      N1118   1.322       .  A
N1117      C1121   1.347       .  A
N1117     Cu1125   2.073       .  S
N1118      C1119   1.342       .  A
N1118     Cu1124   2.066       .  S
C1119      C1120   1.380       .  A
C1119      H1122   1.082       .  S
C1120      C1121   1.385       .  A
C1121      H1123   1.082       .  S
Cu1124     N1127   2.066       .  S
Cu1125     N1135   2.074       .  S
Cu1126     N1128   2.085       .  S
Cu1126     N1134   2.086       .  S
N1127      N1128   1.322       .  A
N1127      C1131   1.343       .  A
N1128      C1129   1.348       .  A
C1129      C1130   1.387       .  A
C1129      H1132   1.082       .  S
C1130      C1131   1.382       .  A
C1131      H1133   1.082       .  S
N1134      N1135   1.324       .  A
N1134      C1138   1.346       .  A
N1135      C1136   1.345       .  A
C1136      C1137   1.382       .  A
C1136      H1139   1.082       .  S
C1137      C1138   1.384       .  A
C1138      H1140   1.082       .  S
N1141      N1142   1.326       .  A
N1141      C1145   1.351       .  A
N1141     Cu1149   2.099       .  S
N1142      C1143   1.342       .  A
N1142     Cu1148   2.076       .  S
C1143      C1144   1.380       .  A
C1143      H1146   1.082       .  S
C1144      C1145   1.386       .  A
C1144      C1238   1.472       .  S
C1145      H1147   1.082       .  S
Cu1148     N1151   2.073       .  S
Cu1149     N1159   2.097       .  S
Cu1150     N1152   2.058       .  S
Cu1150     N1158   2.059       .  S
N1151      N1152   1.320       .  A
N1151      C1155   1.347       .  A
N1152      C1153   1.342       .  A
C1153      C1154   1.379       .  A
C1153      H1156   1.082       .  S
C1154      C1155   1.385       .  A
C1155      H1157   1.082       .  S
N1158      N1159   1.322       .  A
N1158      C1162   1.339       .  A
N1159      C1160   1.353       .  A
C1160      C1161   1.390       .  A
C1160      H1163   1.082       .  S
C1161      C1162   1.379       .  A
C1161      C1209   1.476       .  S
C1162      H1164   1.082       .  S
N1165      N1166   1.326       .  A
N1165      C1169   1.349       .  A
N1165     Cu1173   2.095       .  S
N1166      C1167   1.342       .  A
N1166     Cu1172   2.073       .  S
C1167      C1168   1.379       .  A
C1167      H1170   1.082       .  S
C1168      C1169   1.385       .  A
C1168      C1642   1.469       .  S
C1169      H1171   1.082       .  S
Cu1172     N1175   2.071       .  S
Cu1173     N1183   2.094   1_455  S
Cu1174     N1176   2.056       .  S
Cu1174     N1182   2.056   1_455  S
N1175      N1176   1.319       .  A
N1175      C1179   1.346       .  A
N1176      C1177   1.343       .  A
C1177      C1178   1.380       .  A
C1177      H1180   1.082       .  S
C1178      C1179   1.385       .  A
C1179      H1181   1.082       .  S
N1182      N1183   1.322       .  A
N1182      C1186   1.338       .  A
N1183      C1184   1.353       .  A
C1184      C1185   1.390       .  A
C1184      H1187   1.082       .  S
C1185      C1186   1.378       .  A
C1185      C1192   1.475       .  S
C1186      H1188   1.082       .  S
N1189      N1190   1.324       .  A
N1189      C1193   1.352       .  A
N1189     Cu1197   2.095       .  S
N1190      C1191   1.340       .  A
N1190     Cu1196   2.070       .  S
C1191      C1192   1.380       .  A
C1191      H1194   1.082       .  S
C1192      C1193   1.388       .  A
C1193      H1195   1.082       .  S
Cu1196     N1199   2.069       .  S
Cu1197     N1207   2.096       .  S
Cu1198     N1200   2.070       .  S
Cu1198     N1206   2.072       .  S
N1199      N1200   1.319       .  A
N1199      C1203   1.344       .  A
N1200      C1201   1.347       .  A
C1201      C1202   1.385       .  A
C1201      H1204   1.082       .  S
C1202      C1203   1.384       .  A
C1203      H1205   1.082       .  S
N1206      N1207   1.324       .  A
N1206      C1210   1.340       .  A
N1207      C1208   1.352       .  A
C1208      C1209   1.388       .  A
C1208      H1211   1.082       .  S
C1209      C1210   1.380       .  A
C1210      H1212   1.082       .  S
O1213     Cu1221   2.035       .  S
O1213      C1223   1.280       .  A
O1214     Cu1221   2.031       .  S
O1214      C1224   1.280       .  A
O1215     Cu1221   2.025       .  S
O1215      C1225   1.279       .  A
O1216     Cu1221   2.026       .  S
O1216      C1226   1.279       .  A
O1217     Cu1222   1.994       .  S
O1217      C1226   1.276       .  A
O1218     Cu1222   1.996       .  S
O1218      C1225   1.276       .  A
O1219     Cu1222   1.995       .  S
O1219      C1224   1.276       .  A
O1220     Cu1222   1.997       .  S
O1220      C1223   1.276       .  A
Cu1221    Cu1222   2.375       .  S
C1224      C1261   1.471       .  S
C1225      C1316   1.469       .  S
O1227     Cu1235   1.990       .  S
O1227      C1237   1.275       .  A
O1228     Cu1235   1.993       .  S
O1228      C1238   1.276       .  A
O1229     Cu1235   1.993       .  S
O1229      C1239   1.276       .  A
O1230     Cu1235   1.995       .  S
O1230      C1240   1.276       .  A
O1231     Cu1236   2.028       .  S
O1231      C1240   1.279       .  A
O1232     Cu1236   2.030       .  S
O1232      C1239   1.280       .  A
O1233     Cu1236   2.034       .  S
O1233      C1238   1.280       .  A
O1234     Cu1236   2.031       .  S
O1234      C1237   1.280       .  A
Cu1235    Cu1236   2.375       .  S
C1237      C1285   1.470       .  S
C1240      C1562   1.471       .  S
N1241      N1242   1.322       .  A
N1241      C1245   1.352       .  A
N1241     Cu1249   2.091   1_655  S
N1242      C1243   1.335       .  A
N1242     Cu1248   2.045   1_655  S
C1243      C1244   1.375       .  A
C1243      H1246   1.082       .  S
C1244      C1245   1.389       .  A
C1244      C1292   1.469       .  S
C1245      H1247   1.082       .  S
Cu1248     N1251   2.045       .  S
Cu1249     N1259   2.093       .  S
Cu1250     N1252   2.078       .  S
Cu1250     N1258   2.080       .  S
N1251      N1252   1.319       .  A
N1251      C1255   1.342       .  A
N1252      C1253   1.347       .  A
C1253      C1254   1.385       .  A
C1253      H1256   1.082       .  S
C1254      C1255   1.378       .  A
C1254      C1432   1.477       .  S
C1255      H1257   1.082       .  S
N1258      N1259   1.326       .  A
N1258      C1262   1.342       .  A
N1259      C1260   1.350       .  A
C1260      C1261   1.385       .  A
C1260      H1263   1.082       .  S
C1261      C1262   1.380       .  A
C1262      H1264   1.082       .  S
N1265      N1266   1.322       .  A
N1265      C1269   1.351       .  A
N1265     Cu1273   2.088   1_545  S
N1266      C1267   1.336       .  A
N1266     Cu1272   2.048   1_545  S
C1267      C1268   1.376       .  A
C1267      H1270   1.082       .  S
C1268      C1269   1.388       .  A
C1268      C1309   1.468       .  S
C1269      H1271   1.082       .  S
Cu1272     N1275   2.048       .  S
Cu1273     N1283   2.089       .  S
Cu1274     N1276   2.075       .  S
Cu1274     N1282   2.077       .  S
N1275      N1276   1.319       .  A
N1275      C1279   1.342       .  A
N1276      C1277   1.347       .  A
C1277      C1278   1.385       .  A
C1277      H1280   1.082       .  S
C1278      C1279   1.378       .  A
C1278      C1490   1.476       .  S
C1279      H1281   1.082       .  S
N1282      N1283   1.325       .  A
N1282      C1286   1.342       .  A
N1283      C1284   1.350       .  A
C1284      C1285   1.385       .  A
C1284      H1287   1.082       .  S
C1285      C1286   1.380       .  A
C1286      H1288   1.082       .  S
N1289      N1290   1.323       .  A
N1289      C1293   1.350       .  A
N1289     Cu1297   2.075       .  S
N1290      C1291   1.338       .  A
N1290     Cu1296   2.066       .  S
C1291      C1292   1.380       .  A
C1291      H1294   1.082       .  S
C1292      C1293   1.384       .  A
C1293      H1295   1.082       .  S
Cu1296     N1299   2.065       .  S
Cu1297     N1307   2.076       .  S
Cu1298     N1300   2.067       .  S
Cu1298     N1306   2.069       .  S
N1299      N1300   1.319       .  A
N1299      C1303   1.345       .  A
N1300      C1301   1.345       .  A
C1301      C1302   1.385       .  A
C1301      H1304   1.082       .  S
C1302      C1303   1.384       .  A
C1303      H1305   1.082       .  S
N1306      N1307   1.323       .  A
N1306      C1310   1.339       .  A
N1307      C1308   1.349       .  A
C1308      C1309   1.383       .  A
C1308      H1311   1.082       .  S
C1309      C1310   1.380       .  A
C1310      H1312   1.082       .  S
N1313      N1314   1.326       .  A
N1313      C1317   1.349       .  A
N1313     Cu1321   2.092       .  S
N1314      C1315   1.342       .  A
N1314     Cu1320   2.077       .  S
C1315      C1316   1.380       .  A
C1315      H1318   1.082       .  S
C1316      C1317   1.384       .  A
C1317      H1319   1.082       .  S
Cu1320     N1323   2.075       .  S
Cu1321     N1331   2.090       .  S
Cu1322     N1324   2.055       .  S
Cu1322     N1330   2.056       .  S
N1323      N1324   1.319       .  A
N1323      C1327   1.347       .  A
N1324      C1325   1.342       .  A
C1325      C1326   1.379       .  A
C1325      H1328   1.082       .  S
C1326      C1327   1.385       .  A
C1326      C1523   1.478       .  S
C1327      H1329   1.082       .  S
N1330      N1331   1.322       .  A
N1330      C1334   1.338       .  A
N1331      C1332   1.352       .  A
C1332      C1333   1.389       .  A
C1332      H1335   1.082       .  S
C1333      C1334   1.378       .  A
C1333      C1381   1.473       .  S
C1334      H1336   1.082       .  S
N1337      N1338   1.323       .  A
N1337      C1341   1.353       .  A
N1337     Cu1345   2.097   1_545  S
N1338      C1339   1.339       .  A
N1338     Cu1344   2.063   1_545  S
C1339      C1340   1.379       .  A
C1339      H1342   1.082       .  S
C1340      C1341   1.389       .  A
C1340      C1364   1.475       .  S
C1341      H1343   1.082       .  S
Cu1344     N1347   2.062       .  S
Cu1345     N1355   2.097       .  S
Cu1346     N1348   2.070       .  S
Cu1346     N1354   2.072       .  S
N1347      N1348   1.319       .  A
N1347      C1351   1.344       .  A
N1348      C1349   1.346       .  A
C1349      C1350   1.384       .  A
C1349      H1352   1.082       .  S
C1350      C1351   1.381       .  A
C1350      C1489   1.480       .  S
C1351      H1353   1.082       .  S
N1354      N1355   1.325       .  A
N1354      C1358   1.342       .  A
N1355      C1356   1.350       .  A
C1356      C1357   1.386       .  A
C1356      H1359   1.082       .  S
C1357      C1358   1.379       .  A
C1357      C1641   1.471       .  S
C1358      H1360   1.082       .  S
N1361      N1362   1.324       .  A
N1361      C1365   1.352       .  A
N1361     Cu1369   2.093       .  S
N1362      C1363   1.340       .  A
N1362     Cu1368   2.072       .  S
C1363      C1364   1.381       .  A
C1363      H1366   1.082       .  S
C1364      C1365   1.387       .  A
C1365      H1367   1.082       .  S
Cu1368     N1371   2.071       .  S
Cu1369     N1379   2.093       .  S
Cu1370     N1372   2.065       .  S
Cu1370     N1378   2.066       .  S
N1371      N1372   1.319       .  A
N1371      C1375   1.345       .  A
N1372      C1373   1.345       .  A
C1373      C1374   1.384       .  A
C1373      H1376   1.082       .  S
C1374      C1375   1.384       .  A
C1375      H1377   1.082       .  S
N1378      N1379   1.324       .  A
N1378      C1382   1.339       .  A
N1379      C1380   1.352       .  A
C1380      C1381   1.387       .  A
C1380      H1383   1.082       .  S
C1381      C1382   1.379       .  A
C1382      H1384   1.082       .  S
N1385      N1386   1.322       .  A
N1385      C1389   1.347       .  A
N1385     Cu1393   2.076   1_554  S
N1386      C1387   1.342       .  A
N1386     Cu1392   2.063       .  S
C1387      C1388   1.379       .  A
C1387      H1390   1.082       .  S
C1388      C1389   1.384       .  A
C1388      C1430   1.479       .  S
C1389      H1391   1.082       .  S
Cu1392     N1395   2.063       .  S
Cu1393     N1403   2.077       .  S
Cu1394     N1396   2.077   1_556  S
Cu1394     N1402   2.078       .  S
N1395      N1396   1.322       .  A
N1395      C1399   1.341       .  A
N1396      C1397   1.348       .  A
C1397      C1398   1.384       .  A
C1397      H1400   1.082       .  S
C1398      C1399   1.379       .  A
C1398      C1488   1.479       .  S
C1399      H1401   1.082       .  S
N1402      N1403   1.324       .  A
N1402      C1406   1.346       .  A
N1403      C1404   1.345       .  A
C1404      C1405   1.383       .  A
C1404      H1407   1.082       .  S
C1405      C1406   1.383       .  A
C1406      H1408   1.082       .  S
N1409      C1414   1.355       .  A
N1409      C1413   1.356       .  A
N1409      H1441   1.039       .  S
N1410      C1417   1.352       .  A
N1410      C1418   1.352       .  A
N1411      C1416   1.354       .  A
N1411      C1415   1.352       .  A
N1411      H1442   1.037       .  S
N1412      C1419   1.350       .  A
N1412      C1420   1.352       .  A
C1413      C1421   1.387       .  A
C1413      C1429   1.417       .  A
C1414      C1430   1.417       .  A
C1414      C1422   1.388       .  A
C1415      C1423   1.388       .  A
C1415      C1432   1.414       .  A
C1416      C1431   1.414       .  A
C1416      C1424   1.387       .  A
C1417      C1429   1.413       .  A
C1417      C1425   1.386       .  A
C1418      C1432   1.415       .  A
C1418      C1426   1.387       .  A
C1419      C1427   1.387       .  A
C1419      C1430   1.412       .  A
C1420      C1428   1.386       .  A
C1420      C1431   1.413       .  A
C1421      C1422   1.373       .  A
C1421      H1433   1.082       .  S
C1422      H1434   1.082       .  S
C1423      C1424   1.375       .  A
C1423      H1435   1.082       .  S
C1424      H1436   1.082       .  S
C1425      C1426   1.372       .  A
C1425      H1437   1.082       .  S
C1426      H1438   1.082       .  S
C1427      C1428   1.371       .  A
C1427      H1439   1.082       .  S
C1428      H1440   1.082       .  S
C1429      C1548   1.486       .  S
C1431      C1596   1.480       .  S
N1443      N1444   1.321       .  A
N1443      C1447   1.347       .  A
N1443     Cu1451   2.070   1_554  S
N1444      C1445   1.341       .  A
N1444     Cu1450   2.066       .  S
C1445      C1446   1.380       .  A
C1445      H1448   1.082       .  S
C1446      C1447   1.384       .  A
C1446      C1521   1.481       .  S
C1447      H1449   1.082       .  S
Cu1450     N1453   2.067       .  S
Cu1451     N1461   2.071       .  S
Cu1452     N1454   2.087   1_556  S
Cu1452     N1460   2.087       .  S
N1453      N1454   1.322       .  A
N1453      C1457   1.344       .  A
N1454      C1455   1.349       .  A
C1455      C1456   1.387       .  A
C1455      H1458   1.082       .  S
C1456      C1457   1.381       .  A
C1456      C1487   1.486       .  S
C1457      H1459   1.082       .  S
N1460      N1461   1.324       .  A
N1460      C1464   1.347       .  A
N1461      C1462   1.344       .  A
C1462      C1463   1.381       .  A
C1462      H1465   1.082       .  S
C1463      C1464   1.385       .  A
C1464      H1466   1.082       .  S
N1467      C1472   1.355       .  A
N1467      C1471   1.356       .  A
N1467      H1499   1.039       .  S
N1468      C1475   1.353       .  A
N1468      C1476   1.353       .  A
N1469      C1474   1.354       .  A
N1469      C1473   1.352       .  A
N1469      H1500   1.036       .  S
N1470      C1477   1.351       .  A
N1470      C1478   1.353       .  A
C1471      C1479   1.386       .  A
C1471      C1487   1.417       .  A
C1472      C1488   1.417       .  A
C1472      C1480   1.388       .  A
C1473      C1481   1.388       .  A
C1473      C1490   1.414       .  A
C1474      C1489   1.414       .  A
C1474      C1482   1.387       .  A
C1475      C1487   1.414       .  A
C1475      C1483   1.386       .  A
C1476      C1490   1.415       .  A
C1476      C1484   1.387       .  A
C1477      C1485   1.387       .  A
C1477      C1488   1.412       .  A
C1478      C1486   1.386       .  A
C1478      C1489   1.414       .  A
C1479      C1480   1.372       .  A
C1479      H1491   1.082       .  S
C1480      H1492   1.082       .  S
C1481      C1482   1.375       .  A
C1481      H1493   1.082       .  S
C1482      H1494   1.082       .  S
C1483      C1484   1.371       .  A
C1483      H1495   1.082       .  S
C1484      H1496   1.082       .  S
C1485      C1486   1.371       .  A
C1485      H1497   1.082       .  S
C1486      H1498   1.082       .  S
N1501      C1506   1.355       .  A
N1501      C1505   1.355       .  A
N1501      H1533   1.039       .  S
N1502      C1509   1.351       .  A
N1502      C1510   1.352       .  A
N1503      C1508   1.352       .  A
N1503      C1507   1.353       .  A
N1503      H1534   1.037       .  S
N1504      C1511   1.351       .  A
N1504      C1512   1.352       .  A
C1505      C1513   1.387       .  A
C1505      C1521   1.416       .  A
C1506      C1522   1.416       .  A
C1506      C1514   1.387       .  A
C1507      C1515   1.387       .  A
C1507      C1524   1.414       .  A
C1508      C1523   1.414       .  A
C1508      C1516   1.387       .  A
C1509      C1521   1.411       .  A
C1509      C1517   1.386       .  A
C1510      C1524   1.414       .  A
C1510      C1518   1.387       .  A
C1511      C1519   1.386       .  A
C1511      C1522   1.411       .  A
C1512      C1520   1.387       .  A
C1512      C1523   1.414       .  A
C1513      C1514   1.372       .  A
C1513      H1525   1.082       .  S
C1514      H1526   1.082       .  S
C1515      C1516   1.377       .  A
C1515      H1527   1.082       .  S
C1516      H1528   1.082       .  S
C1517      C1518   1.370       .  A
C1517      H1529   1.082       .  S
C1518      H1530   1.082       .  S
C1519      C1520   1.370       .  A
C1519      H1531   1.082       .  S
C1520      H1532   1.082       .  S
C1522      C1538   1.482       .  S
C1524      C1572   1.478       .  S
N1535      N1536   1.322       .  A
N1535      C1539   1.348       .  A
N1535     Cu1543   2.072   1_554  S
N1536      C1537   1.342       .  A
N1536     Cu1542   2.069       .  S
C1537      C1538   1.381       .  A
C1537      H1540   1.082       .  S
C1538      C1539   1.385       .  A
C1539      H1541   1.082       .  S
Cu1542     N1545   2.070       .  S
Cu1543     N1553   2.073       .  S
Cu1544     N1546   2.082   1_556  S
Cu1544     N1552   2.083       .  S
N1545      N1546   1.322       .  A
N1545      C1549   1.344       .  A
N1546      C1547   1.348       .  A
C1547      C1548   1.386       .  A
C1547      H1550   1.082       .  S
C1548      C1549   1.382       .  A
C1549      H1551   1.082       .  S
N1552      N1553   1.324       .  A
N1552      C1556   1.346       .  A
N1553      C1554   1.344       .  A
C1554      C1555   1.382       .  A
C1554      H1557   1.082       .  S
C1555      C1556   1.384       .  A
C1556      H1558   1.082       .  S
N1559      N1560   1.326       .  A
N1559      C1563   1.350       .  A
N1559     Cu1567   2.094       .  S
N1560      C1561   1.342       .  A
N1560     Cu1566   2.079       .  S
C1561      C1562   1.380       .  A
C1561      H1564   1.082       .  S
C1562      C1563   1.385       .  A
C1563      H1565   1.082       .  S
Cu1566     N1569   2.077       .  S
Cu1567     N1577   2.092       .  S
Cu1568     N1570   2.053       .  S
Cu1568     N1576   2.054       .  S
N1569      N1570   1.319       .  A
N1569      C1573   1.347       .  A
N1570      C1571   1.342       .  A
C1571      C1572   1.379       .  A
C1571      H1574   1.082       .  S
C1572      C1573   1.386       .  A
C1573      H1575   1.082       .  S
N1576      N1577   1.322       .  A
N1576      C1580   1.337       .  A
N1577      C1578   1.352       .  A
C1578      C1579   1.389       .  A
C1578      H1581   1.082       .  S
C1579      C1580   1.378       .  A
C1579      C1627   1.472       .  S
C1580      H1582   1.082       .  S
N1583      N1584   1.323       .  A
N1583      C1587   1.353       .  A
N1583     Cu1591   2.095   1_655  S
N1584      C1585   1.338       .  A
N1584     Cu1590   2.058   1_655  S
C1585      C1586   1.378       .  A
C1585      H1588   1.082       .  S
C1586      C1587   1.389       .  A
C1586      C1610   1.473       .  S
C1587      H1589   1.082       .  S
Cu1590     N1593   2.058       .  S
Cu1591     N1601   2.096       .  S
Cu1592     N1594   2.077       .  S
Cu1592     N1600   2.078       .  S
N1593      N1594   1.319       .  A
N1593      C1597   1.344       .  A
N1594      C1595   1.347       .  A
C1595      C1596   1.385       .  A
C1595      H1598   1.082       .  S
C1596      C1597   1.381       .  A
C1597      H1599   1.082       .  S
N1600      N1601   1.326       .  A
N1600      C1604   1.343       .  A
N1601      C1602   1.350       .  A
C1602      C1603   1.386       .  A
C1602      H1605   1.082       .  S
C1603      C1604   1.380       .  A
C1603      C1644   1.472       .  S
C1604      H1606   1.082       .  S
N1607      N1608   1.323       .  A
N1607      C1611   1.352       .  A
N1607     Cu1615   2.090       .  S
N1608      C1609   1.339       .  A
N1608     Cu1614   2.068       .  S
C1609      C1610   1.380       .  A
C1609      H1612   1.082       .  S
C1610      C1611   1.387       .  A
C1611      H1613   1.082       .  S
Cu1614     N1617   2.067       .  S
Cu1615     N1625   2.090       .  S
Cu1616     N1618   2.063       .  S
Cu1616     N1624   2.065       .  S
N1617      N1618   1.319       .  A
N1617      C1621   1.344       .  A
N1618      C1619   1.345       .  A
C1619      C1620   1.384       .  A
C1619      H1622   1.082       .  S
C1620      C1621   1.384       .  A
C1621      H1623   1.082       .  S
N1624      N1625   1.324       .  A
N1624      C1628   1.339       .  A
N1625      C1626   1.351       .  A
C1626      C1627   1.386       .  A
C1626      H1629   1.082       .  S
C1627      C1628   1.379       .  A
C1628      H1630   1.082       .  S
O1631     Cu1639   2.020       .  S
O1631      C1641   1.278       .  A
O1632     Cu1639   2.019       .  S
O1632      C1642   1.278       .  A
O1633     Cu1639   2.021       .  S
O1633      C1643   1.278       .  A
O1634     Cu1639   2.024       .  S
O1634      C1644   1.279       .  A
O1635     Cu1640   2.003       .  S
O1635      C1644   1.277       .  A
O1636     Cu1640   2.001       .  S
O1636      C1643   1.277       .  A
O1637     Cu1640   2.002       .  S
O1637      C1642   1.277       .  A
O1638     Cu1640   2.003       .  S
O1638      C1641   1.277       .  A
Cu1639    Cu1640   2.376       .  S
