geometry optimzed in LAMMPS
_audit_creation_date              2020-11-30 
_audit_creation_method            'lammps2cif' 
_symmetry_space_group_name_H-M    'P1' 
_symmetry_Int_Tables_number       1 
_symmetry_cell_setting            triclinic 
loop_ 
_symmetry_equiv_pos_as_xyz 
  x,y,z 
_cell_length_a                    40.1561636 
_cell_length_b                    40.39140215165519 
_cell_length_c                    40.106491434986495 
_cell_angle_alpha                 89.82801837691474 
_cell_angle_beta                  89.46846061623674 
_cell_angle_gamma                 89.35746714127532 
loop_ 
_atom_site_label 
_atom_site_type_symbol 
_atom_site_fract_x 
_atom_site_fract_y 
_atom_site_fract_z 
_atom_site_charge 
O1          O  0.71700651  0.77416752  0.80755332    -0.88300
C2          C  0.73051008  0.69109043  0.75334979     0.87700
Mg3        Mg  0.69067477  0.81621704  0.78818192     1.58100
O4          O  0.80262395  0.73826839  0.76195929    -0.88000
O5          O  0.76613992  0.76144352  0.82788575    -0.75300
C6          C  0.75549051  0.83352177  0.63562984     0.92800
O7          O  0.67087464  0.74285509  0.75225774    -0.75200
O8          O  0.72942309  0.84267449  0.65171466    -0.82700
Mg9        Mg  0.69332038  0.72769405  0.80281609     1.58000
C10         C  0.86427052  0.75950264  0.68399593     0.92700
O11         O  0.71143024  0.71072280  0.85561783    -0.80900
H12         H  0.83492804  0.76066705  0.79183209    -0.06300
C13         C  0.75120719  0.75198645  0.67653792     0.87700
O14         O  0.74070818  0.84069868  0.77549393    -0.75400
O15         O  0.73618351  0.70880659  0.77772687    -0.88200
O16         O  0.85079840  0.73453964  0.69809822    -0.81000
C17         C  0.81516362  0.64934655  0.75674794     0.92800
C18         C  0.73558864  0.69320141  0.86668613     0.92700
Mg19       Mg  0.79899621  0.80400669  0.70168284     1.58000
O20         O  0.78000010  0.81929953  0.64998279    -0.80900
O21         O  0.82102744  0.78848061  0.75202653    -0.75200
O22         O  0.79996629  0.66130350  0.78221033    -0.77800
O23         O  0.64654008  0.74650030  0.82632131    -0.82700
O24         O  0.69350849  0.87081663  0.72173527    -0.81000
C25         C  0.82042577  0.76200162  0.76928246     0.87100
O26         O  0.75529047  0.82237650  0.72586272    -0.88200
O27         O  0.77421866  0.75771123  0.69603436    -0.88300
O28         O  0.72498392  0.76993127  0.67538456    -0.75300
Mg29       Mg  0.78220178  0.71212267  0.80336981     1.58000
O30         O  0.82217002  0.66681625  0.73125185    -0.82700
H31         H  0.73884459  0.80160218  0.84238134    -0.06400
O32         O  0.68898926  0.79282859  0.74091609    -0.88000
H33         H  0.65693528  0.76940380  0.71156402    -0.06300
H34         H  0.78192680  0.85587762  0.75036832    -0.06500
C35         C  0.67145379  0.76876579  0.73412528     0.87100
C36         C  0.74022845  0.77984739  0.82675336     0.87700
C37         C  0.76007383  0.84049108  0.75019511     0.87700
H38         H  0.75293447  0.73029273  0.66085371    -0.06400
O39         O  0.74895553  0.69129573  0.72743825    -0.75500
Mg40       Mg  0.70927159  0.81921802  0.69953337     1.58000
H41         H  0.70848611  0.67594695  0.75359659    -0.06400
C42         C  0.62788732  0.77091087  0.81873340     0.92700
O43         O  0.66587972  0.86265618  0.76935398    -0.82700
C44         C  0.67676286  0.88192050  0.74673982     0.92800
O45         O  0.76127908  0.68657340  0.84898384    -0.82700
Mg46       Mg  0.79902825  0.71490141  0.71399713     1.58200
O47         O  0.63836910  0.79564885  0.80203022    -0.81000
O48         O  0.84800644  0.78619031  0.67864808    -0.82700
C49         C  0.62449779  0.01525205  0.75457997    -0.02400
O50         O  0.75088748  0.20919241  0.78218679    -0.88300
C51         C  0.66621547  0.26505899  0.77411476     0.87700
Mg52       Mg  0.79462392  0.22670515  0.80529825     1.58100
O53         O  0.71269809  0.25624065  0.70010919    -0.88000
O54         O  0.73583336  0.18978909  0.73371623    -0.75300
C55         C  0.81092242  0.38014979  0.74642719     0.92800
O56         O  0.72230431  0.26265131  0.83355698    -0.75200
O57         O  0.82005062  0.36262061  0.77124878    -0.82700
Mg58       Mg  0.70564622  0.21383281  0.80977738     1.58000
C59         C  0.73507962  0.33245284  0.63931625     0.92700
O60         O  0.68763237  0.16318175  0.78965414    -0.80900
H61         H  0.73606205  0.22707159  0.66691687    -0.06300
C62         C  0.72636078  0.33895207  0.75391251     0.87700
O63         O  0.81656069  0.24091659  0.75452970    -0.75400
O64         O  0.68438843  0.24076238  0.76804928    -0.88200
O65         O  0.70991141  0.31667840  0.65052390    -0.81000
C66         C  0.62294924  0.26109250  0.68695399     0.92800
C67         C  0.66919730  0.15296928  0.76611580     0.92700
Mg68       Mg  0.77808005  0.31680829  0.70376519     1.58000
O69         O  0.79356590  0.36850316  0.72284141    -0.80900
O70         O  0.76294227  0.26692401  0.68082817    -0.75200
O71         O  0.63476009  0.23680068  0.70379060    -0.81000
O72         O  0.72802311  0.18727264  0.85524074    -0.82700
O73         O  0.85032604  0.29581629  0.80799366    -0.81000
C74         C  0.73681736  0.24932947  0.68179680     0.87100
O75         O  0.79893728  0.29154841  0.74507272    -0.88200
O76         O  0.73164549  0.32107838  0.72930431    -0.88300
O77         O  0.74592541  0.33942217  0.77874276    -0.75300
Mg78       Mg  0.68630255  0.21577202  0.72081244     1.58000
O79         O  0.64033969  0.28642320  0.68009926    -0.82700
H80         H  0.77691494  0.17383884  0.75839394    -0.06400
O81         O  0.77152417  0.27402426  0.81226258    -0.88000
H82         H  0.74995876  0.30185825  0.84769846    -0.06300
H83         H  0.83112722  0.26828239  0.71465270    -0.06500
C84         C  0.74839660  0.28021343  0.83201556     0.87100
C85         C  0.75533317  0.19008340  0.75848282     0.87700
C86         C  0.81654368  0.26738767  0.73742427     0.87700
H87         H  0.70397197  0.35404891  0.75469647    -0.06400
O88         O  0.66502455  0.29018981  0.75483045    -0.75500
Mg89       Mg  0.79688253  0.31598867  0.79207652     1.58000
H90         H  0.65143568  0.26522047  0.79676809    -0.06400
C91         C  0.75499283  0.19228388  0.87095520     0.92700
O92         O  0.84155944  0.24460441  0.82639666    -0.82700
C93         C  0.86043558  0.26940559  0.82270529     0.92800
O94         O  0.66063541  0.17144389  0.74188312    -0.82700
Mg95       Mg  0.68869119  0.30347514  0.70373546     1.58200
O96         O  0.77865076  0.20911597  0.85832182    -0.81000
O97         O  0.75886587  0.34095845  0.65788712    -0.82700
C98         C  0.86920170  0.51275319  0.75246170    -0.02400
C99         C  0.75674627  0.87823793  0.49851158    -0.02400
O100        O  0.78473521  0.75908089  0.19024702    -0.88300
C101        C  0.77303216  0.67507058  0.24397913     0.87700
Mg102      Mg  0.81001368  0.80090248  0.21036712     1.58100
O103        O  0.70147512  0.72464114  0.23772074    -0.88000
O104        O  0.73512485  0.74791357  0.17118171    -0.75300
C105        C  0.74881370  0.81773319  0.36634877     0.92800
O106        O  0.83267700  0.72618794  0.24368283    -0.75200
O107        O  0.77534453  0.82360874  0.34962792    -0.82700
Mg108      Mg  0.80923093  0.71204287  0.19352674     1.58000
C109        C  0.64136899  0.74431899  0.31660807     0.92700
O110        O  0.78975811  0.69429247  0.14049684    -0.80900
H111        H  0.66852592  0.74880940  0.20926341    -0.06300
C112        C  0.75320199  0.73357871  0.32296777     0.87700
O113        O  0.75997970  0.82467417  0.22545647    -0.75400
O114        O  0.76718047  0.69321599  0.21971288    -0.88200
O115        O  0.65243796  0.72001557  0.29947526    -0.81000
C116        C  0.68703938  0.63619598  0.23962196     0.92800
C117        C  0.76433282  0.67802864  0.13090954     0.92700
Mg118      Mg  0.70555566  0.78786433  0.30065462     1.58000
O119        O  0.72397755  0.80357273  0.35307189    -0.80900
O120        O  0.68264719  0.77439651  0.25013892    -0.75200
O121        O  0.70439597  0.64714904  0.21535289    -0.81000
O122        O  0.85540877  0.73195501  0.16976927    -0.82700
O123        O  0.81190666  0.85122096  0.28127951    -0.81000
C124        C  0.68337161  0.74889036  0.23160667     0.87100
O125        O  0.74813905  0.80665765  0.27596110    -0.88200
O126        O  0.72991469  0.74068543  0.30416707    -0.88300
O127        O  0.77946512  0.75077864  0.32400379    -0.75300
Mg128      Mg  0.72048601  0.69863305  0.19569050     1.58000
O129        O  0.67947186  0.65394637  0.26472131    -0.82700
H130        H  0.76213990  0.78752041  0.15618363    -0.06400
O131        O  0.81374657  0.77562176  0.25738265    -0.88000
H132        H  0.84733360  0.75111617  0.28478784    -0.06300
H133        H  0.72002534  0.84045741  0.25256560    -0.06500
C134        C  0.83206518  0.75134577  0.26271747     0.87100
C135        C  0.76110731  0.76558248  0.17166002     0.87700
C136        C  0.74209038  0.82488183  0.25179801     0.87700
H137        H  0.75167599  0.71139432  0.33802952    -0.06400
O138        O  0.75445154  0.67493740  0.26986531    -0.75500
Mg139      Mg  0.79474207  0.80038803  0.30089472     1.58000
H140        H  0.79517682  0.65961072  0.24356995    -0.06400
C141        C  0.87351054  0.75671270  0.17648949     0.92700
O142        O  0.83313920  0.84777389  0.22970145    -0.82700
C143        C  0.82666093  0.86408097  0.25612893     0.92800
O144        O  0.73931753  0.67404056  0.14997302    -0.82700
Mg145      Mg  0.70430725  0.69945585  0.28419615     1.58200
O146        O  0.86249556  0.78116891  0.19362557    -0.81000
O147        O  0.65924069  0.76882430  0.32432539    -0.82700
C148        C  0.74503613  0.62270398  0.99508848    -0.02400
C149        C  0.50884736  0.75187448  0.37878280    -0.02400
C150        C  0.12547450  0.99950932  0.75864780    -0.02400
C151        C  0.75490105  0.11988364  0.99870768    -0.02400
C152        C  0.36562772  0.49122040  0.73844985    -0.02400
C153        C  0.75102829  0.37863468  0.50096492    -0.02400
C154        C  0.62689940  0.50396981  0.24331701    -0.02400
C155        C  0.24991052  0.62615564  0.50353215    -0.02400
C156        C  0.01212517  0.74200847  0.12583005    -0.02400
O157        O  0.29405463  0.77854617  0.28840989    -0.88300
C158        C  0.29929426  0.75748914  0.19073758     0.87700
Mg159      Mg  0.29981177  0.74119396  0.32515503     1.58100
O160        O  0.21838562  0.77354014  0.21935042    -0.88000
O161        O  0.25580030  0.81489700  0.27365584    -0.75300
C162        C  0.20187331  0.61947851  0.27360430     0.92800
O163        O  0.33736733  0.72361350  0.25054291    -0.75200
O164        O  0.22742077  0.62219161  0.29199146    -0.82700
Mg165      Mg  0.33086316  0.78051078  0.25016091     1.58000
C166        C  0.13883011  0.71665254  0.19515329     0.92700
O167        O  0.32716119  0.83789852  0.25039935    -0.80900
H168        H  0.18543584  0.80500621  0.23994394    -0.06300
C169        C  0.24256553  0.67636410  0.21166850     0.87700
O170        O  0.24279137  0.73890570  0.33080833    -0.75400
O171        O  0.29271548  0.77632423  0.21426904    -0.88200
O172        O  0.16293326  0.73184272  0.18094041    -0.81000
C173        C  0.23671107  0.79992245  0.13528656     0.92800
C174        C  0.31183771  0.86145211  0.23545541     0.92700
Mg175      Mg  0.18647496  0.70110465  0.25769130     1.58000
O176        O  0.18799118  0.64495050  0.26082753    -0.80900
O177        O  0.18053004  0.75743173  0.25535309    -0.75200
O178        O  0.25099814  0.81384292  0.15963441    -0.81000
O179        O  0.37323265  0.78236175  0.28676226    -0.82700
O180        O  0.26589219  0.66785494  0.34653237    -0.81000
C181        C  0.19423502  0.77969700  0.23774769     0.87100
O182        O  0.22572925  0.70448771  0.29237278    -0.88200
O183        O  0.22396093  0.70000535  0.21884298    -0.88300
O184        O  0.26078306  0.66215252  0.23328056    -0.75300
Mg185      Mg  0.25335370  0.81239156  0.21647867     1.58000
O186        O  0.21922291  0.77401719  0.13876531    -0.82700
H187        H  0.27094957  0.80816610  0.32135173    -0.06400
O188        O  0.29985820  0.70498839  0.28598645    -0.88000
H189        H  0.33244396  0.67502509  0.26261437    -0.06300
H190        H  0.19458863  0.72545175  0.32552422    -0.06500
C191        C  0.32361332  0.70009547  0.26659481     0.87100
C192        C  0.27396582  0.80098128  0.29554174     0.87700
C193        C  0.21997292  0.72261971  0.31666687     0.87700
H194        H  0.24439264  0.66847455  0.18597928    -0.06400
O195        O  0.27723039  0.73986086  0.17709387    -0.75500
Mg196      Mg  0.26380358  0.66639828  0.29008415     1.58000
H197        H  0.32486867  0.75498950  0.18238142    -0.06400
C198        C  0.38013515  0.76184417  0.30989507     0.92700
O199        O  0.30175527  0.70374247  0.36730161    -0.82700
C200        C  0.28092098  0.68050576  0.37113504     0.92800
O201        O  0.28814566  0.85594005  0.21549453    -0.82700
Mg202      Mg  0.22031133  0.73648191  0.18110362     1.58200
O203        O  0.35803720  0.74330979  0.32317574    -0.81000
O204        O  0.14305396  0.69951498  0.22151655    -0.82700
C205        C  0.25536491  0.86759157  0.00602961    -0.02400
C206        C  0.49149070  0.25435203  0.62008187    -0.02400
O207        O  0.26927750  0.28138996  0.77767573    -0.88300
C208        C  0.17129509  0.28698282  0.75488204     0.87700
Mg209      Mg  0.30830066  0.28301943  0.74198072     1.58100
O210        O  0.20256511  0.20884476  0.77495273    -0.88000
O211        O  0.25386999  0.24816327  0.81793231    -0.75300
C212        C  0.25654495  0.18715898  0.61824312     0.92800
O213        O  0.23499269  0.32284438  0.71898926    -0.75200
O214        O  0.27584441  0.21138293  0.62342216    -0.82700
Mg215      Mg  0.23169160  0.31965444  0.77600167     1.58000
C216        C  0.18361409  0.12570292  0.72541628     0.92700
O217        O  0.22801131  0.32000169  0.83336033    -0.80900
H218        H  0.22647060  0.17850238  0.80641386    -0.06300
C219        C  0.19522954  0.23011494  0.67706197     0.87700
O220        O  0.31183196  0.22647027  0.74019144    -0.75400
O221        O  0.19512578  0.28184710  0.77376775    -0.88200
O222        O  0.16933459  0.14984725  0.74057520    -0.81000
C223        C  0.11676618  0.22444629  0.80128690     0.92800
C224        C  0.21350538  0.30739834  0.85886795     0.92700
Mg225      Mg  0.23940540  0.17361765  0.70014959     1.58000
O226        O  0.23992758  0.17338824  0.64173586    -0.80900
O227        O  0.23861262  0.17100991  0.75773294    -0.75200
O228        O  0.14069925  0.24083571  0.81347390    -0.81000
O229        O  0.26953686  0.36182849  0.77597136    -0.82700
O230        O  0.33293483  0.25012218  0.66565603    -0.81000
C231        C  0.22234115  0.18580044  0.78081263     0.87100
O232        O  0.27558141  0.21102008  0.70286038    -0.88200
O233        O  0.20146489  0.21100854  0.70049384    -0.88300
O234        O  0.21781440  0.24682301  0.66246370    -0.75300
Mg235      Mg  0.19727702  0.24513098  0.81302779     1.58000
O236        O  0.12096648  0.20558768  0.77619281    -0.82700
H237        H  0.30149002  0.26303210  0.81084728    -0.06400
O238        O  0.27153518  0.28486769  0.70352120    -0.88000
H239        H  0.25063620  0.31642853  0.67119814    -0.06300
H240        H  0.30653125  0.17897783  0.72511832    -0.06500
C241        C  0.25285668  0.30854835  0.69687304     0.87100
C242        C  0.27596285  0.26462626  0.80260182     0.87700
C243        C  0.29856092  0.20447086  0.72224323     0.87700
H244        H  0.16966494  0.23344317  0.66942612    -0.06400
O245        O  0.15761702  0.26378223  0.73865417    -0.75500
Mg246      Mg  0.27506260  0.24852314  0.66558789     1.58000
H247        H  0.16249997  0.31212687  0.75128393    -0.06400
C248        C  0.29610300  0.36435462  0.75850424     0.92700
O249        O  0.35186547  0.28253288  0.70597279    -0.82700
C250        C  0.35689544  0.26443699  0.68049143     0.92800
O251        O  0.19444563  0.28261271  0.85588086    -0.82700
Mg252      Mg  0.16404051  0.20698819  0.73834871     1.58200
O253        O  0.30956132  0.33939286  0.74420517    -0.81000
O254        O  0.20367187  0.13075676  0.70126265    -0.82700
C255        C  0.99386203  0.24381990  0.88116840    -0.02400
O256        O  0.78419909  0.21419645  0.21228207    -0.88300
C257        C  0.68674936  0.20920155  0.23354527     0.87700
Mg258      Mg  0.82121503  0.21349845  0.24954401     1.58100
O259        O  0.71564686  0.28753138  0.21148553    -0.88000
O260        O  0.76994038  0.24668702  0.17089909    -0.75300
C261        C  0.76379477  0.31400266  0.36862970     0.92800
O262        O  0.74761360  0.17570677  0.27165844    -0.75200
O263        O  0.78393172  0.28970765  0.36475461    -0.82700
Mg264      Mg  0.74722781  0.17616557  0.21441544     1.58000
C265        C  0.68766993  0.37072989  0.26220328     0.92700
O266        O  0.74624617  0.17257256  0.15673473    -0.80900
H267        H  0.73929703  0.31765470  0.17968715    -0.06300
C268        C  0.70555592  0.26986402  0.31062442     0.87700
O269        O  0.82423857  0.27017810  0.24892771    -0.75400
O270        O  0.71061532  0.21399422  0.21439434    -0.88200
O271        O  0.67584685  0.34674644  0.24560763    -0.81000
C272        C  0.63188357  0.26753880  0.18705869     0.92800
C273        C  0.73199221  0.18467192  0.13098091     0.92700
Mg274      Mg  0.74885694  0.32513754  0.28599578     1.58000
O275        O  0.74780510  0.32694136  0.34432888    -0.80900
O276        O  0.74955360  0.32638992  0.22834979    -0.75200
O277        O  0.65627927  0.25181738  0.17388426    -0.81000
O278        O  0.78479448  0.13401011  0.21769890    -0.82700
O279        O  0.84260666  0.24793673  0.32572446    -0.81000
C280        C  0.73464521  0.31081641  0.20538231     0.87100
O281        O  0.78670920  0.28792407  0.28513868    -0.88200
O282        O  0.71261264  0.28735616  0.28623883    -0.88300
O283        O  0.72768697  0.25369117  0.32646957    -0.75300
Mg284      Mg  0.71303753  0.24945166  0.17447678     1.58000
O285        O  0.63534741  0.28784278  0.21082851    -0.82700
H286        H  0.81749232  0.23175606  0.17953644    -0.06400
O287        O  0.78267094  0.21410946  0.28683415    -0.88000
H288        H  0.76013261  0.18433250  0.31970542    -0.06300
H289        H  0.81788935  0.31845991  0.26145824    -0.06500
C290        C  0.76383952  0.19096686  0.29381031     0.87100
C291        C  0.79164785  0.23041083  0.18714174     0.87700
C292        C  0.81012710  0.29322542  0.26557108     0.87700
H293        H  0.67973813  0.26746558  0.31801834    -0.06400
O294        O  0.67255204  0.23263099  0.24955001    -0.75500
Mg295      Mg  0.78487956  0.25130871  0.32382670     1.58000
H296        H  0.67860718  0.18411575  0.23783010    -0.06400
C297        C  0.80935552  0.13182562  0.23745743     0.92700
O298        O  0.86318208  0.21417712  0.28666831    -0.82700
C299        C  0.86697150  0.23203708  0.31233656     0.92800
O300        O  0.71299502  0.21008932  0.13332119    -0.82700
Mg301      Mg  0.67638487  0.28925361  0.24818187     1.58200
O302        O  0.82184994  0.15723736  0.25097377    -0.81000
O303        O  0.71032658  0.36651094  0.28383629    -0.82700
C304        C  0.87360585  0.00215505  0.25729951    -0.02400
C305        C  0.99764598  0.25411536  0.37423625    -0.02400
O306        O  0.25815247  0.29861872  0.21115779    -0.88300
C307        C  0.17094909  0.25158068  0.22524221     0.87700
Mg308      Mg  0.29883345  0.27703732  0.18493501     1.58100
O309        O  0.22160484  0.25479463  0.29558004    -0.88000
O310        O  0.24832125  0.31912723  0.26085703    -0.75300
C311        C  0.31306621  0.12295368  0.24368680     0.92800
O312        O  0.22268457  0.24669468  0.16419519    -0.75200
O313        O  0.32088027  0.14176835  0.21947587    -0.82700
Mg314      Mg  0.21115760  0.29764318  0.18736579     1.58000
C315        C  0.23819511  0.17340812  0.35441966     0.92700
O316        O  0.19833897  0.35024424  0.20671533    -0.80900
H317        H  0.24722530  0.28026694  0.32927258    -0.06300
C318        C  0.22782428  0.16905654  0.24170892     0.87700
O319        O  0.32227386  0.26164475  0.23500890    -0.75400
O320        O  0.19064243  0.27429549  0.23059367    -0.88200
O321        O  0.21499544  0.19288757  0.34451232    -0.81000
C322        C  0.13330190  0.25988021  0.31436493     0.92800
C323        C  0.18325388  0.36308579  0.23169819     0.92700
Mg324      Mg  0.28199001  0.18731653  0.28935440     1.58000
O325        O  0.29635256  0.13427605  0.26857008    -0.80900
O326        O  0.27019306  0.23777754  0.31412920    -0.75200
O327        O  0.14477148  0.28387387  0.29709568    -0.81000
O328        O  0.23154764  0.32022235  0.14002030    -0.82700
O329        O  0.34945219  0.20784069  0.18632464    -0.81000
C330        C  0.24604414  0.25848087  0.31375466     0.87100
O331        O  0.30197388  0.21281906  0.24763517    -0.88200
O332        O  0.23486723  0.18723339  0.26539566    -0.88300
O333        O  0.24623160  0.16701155  0.21575041    -0.75300
Mg334      Mg  0.19761498  0.29885212  0.27726593     1.58000
O335        O  0.14995864  0.23316714  0.31832987    -0.82700
H336        H  0.28861423  0.33094786  0.23254364    -0.06400
O337        O  0.27222763  0.23188593  0.18212222    -0.88000
H338        H  0.24681900  0.20465094  0.14970277    -0.06300
H339        H  0.33609390  0.23494726  0.27565920    -0.06500
C340        C  0.24760451  0.22695524  0.16450240     0.87100
C341        C  0.26578178  0.31707174  0.23436515     0.87700
C342        C  0.32092050  0.23604343  0.25354782     0.87700
H343        H  0.20501429  0.15510729  0.24278768    -0.06400
O344        O  0.16989705  0.22576611  0.24344626    -0.75500
Mg345      Mg  0.29710179  0.18897223  0.20097712     1.58000
H346        H  0.15502238  0.25319179  0.20370440    -0.06400
C347        C  0.25629799  0.31161010  0.12188171     0.92700
O348        O  0.34382765  0.25610564  0.15976958    -0.82700
C349        C  0.36145419  0.23183522  0.16960345     0.92800
O350        O  0.17579358  0.34660744  0.25776599    -0.82700
Mg351      Mg  0.19440890  0.20997361  0.29262307     1.58200
O352        O  0.27985068  0.29338492  0.13288935    -0.81000
O353        O  0.26136495  0.16329719  0.33505435    -0.82700
C354        C  0.24678118  0.37083469  0.98823411    -0.02400
C355        C  0.37569113  0.98962695  0.24964425    -0.02400
O356        O  0.94568293  0.01489432  0.47821471    -0.88300
C357        C  0.00004664  0.93022220  0.48905412     0.87700
Mg358      Mg  0.96377098  0.05880181  0.45546646     1.58100
O359        O  0.98800233  0.97512845  0.56269534    -0.88000
O360        O  0.92398791  0.99991032  0.52647894    -0.75300
C361        C  0.11370236  0.07258939  0.52051174     0.92800
O362        O  0.00439515  0.98684123  0.43159492    -0.75200
O363        O  0.09336428  0.08796833  0.50176353    -0.82700
Mg364      Mg  0.95346821  0.96984403  0.45147201     1.58000
C365        C  0.06554957  0.99233044  0.62552633     0.92700
O366        O  0.90123042  0.95285450  0.46707023    -0.80900
H367        H  0.95833185  0.99657470  0.59689885    -0.06300
C368        C  0.07406809  0.99033769  0.51161260     0.87700
O369        O  0.97456224  0.07982627  0.50778864    -0.75400
O370        O  0.97603072  0.94896776  0.49438448    -0.88200
O371        O  0.04785458  0.96899493  0.61413277    -0.81000
C372        C  0.99246973  0.88585363  0.57191175     0.92800
C373        C  0.88690288  0.93671008  0.49029945     0.92700
Mg374      Mg  0.05020485  0.03849593  0.56249729     1.58000
O375        O  0.10332992  0.05257902  0.54280325    -0.80900
O376        O  0.99948885  0.02320791  0.58522737    -0.75200
O377        O  0.96855388  0.89613914  0.55355187    -0.81000
O378        O  0.93162491  0.99021164  0.40464308    -0.82700
O379        O  0.02903673  0.11489826  0.46202507    -0.81000
C380        C  0.98104595  0.99790661  0.58230875     0.87100
O381        O  0.02390114  0.06068308  0.52153822    -0.88200
O382        O  0.05447440  0.99395795  0.53541888    -0.88300
O383        O  0.07612496  0.01164889  0.48816075    -0.75300
Mg384      Mg  0.94777093  0.94961816  0.53974158     1.58000
O385        O  0.01372373  0.90587770  0.58317414    -0.82700
H386        H  0.90992188  0.04128330  0.50124991    -0.06400
O387        O  0.01217586  0.03663763  0.45195960    -0.88000
H388        H  0.04409247  0.01536706  0.41977584    -0.06300
H389        H  0.99777708  0.09159942  0.55088896    -0.06500
C390        C  0.02094506  0.01344615  0.43358576     0.87100
C391        C  0.92567143  0.01940252  0.50153684     0.87700
C392        C  0.99903486  0.07807319  0.52769266     0.87700
H393        H  0.08968264  0.96837679  0.51055975    -0.06400
O394        O  0.02444093  0.92836093  0.50894760    -0.75500
Mg395      Mg  0.05101544  0.06246936  0.47629897     1.58000
H396        H  0.00070308  0.91570222  0.46645870    -0.06400
C397        C  0.93665749  0.01666214  0.38832365     0.92700
O398        O  0.98170164  0.10681591  0.43455521    -0.82700
C399        C  0.00513328  0.12543922  0.44383667     0.92800
O400        O  0.90219289  0.92730052  0.51642594    -0.82700
Mg401      Mg  0.03499647  0.95118499  0.56016864     1.58200
O402        O  0.95064913  0.04176107  0.40122180    -0.81000
O403        O  0.07504168  0.01585053  0.60670615    -0.82700
O404        O  0.04154212  0.03516615  0.97626729    -0.88300
C405        C  0.94362293  0.01572746  0.96835073     0.87700
Mg406      Mg  0.07908911  0.99838994  0.97233581     1.58100
O407        O  0.96932018  0.03005958  0.04976101    -0.88000
O408        O  0.02555621  0.07141986  0.01404829    -0.75300
C409        C  0.02312837  0.87432063  0.06491023     0.92800
O410        O  0.00548858  0.97942787  0.93295258    -0.75200
O411        O  0.04277665  0.87991388  0.04058838    -0.82700
Mg412      Mg  0.00446535  0.03581615  0.93820767     1.58000
C413        C  0.94250700  0.97348138  0.12877480     0.92700
O414        O  0.00287877  0.09216776  0.93852974    -0.80900
H415        H  0.98972643  0.05959699  0.08369654    -0.06300
C416        C  0.96277413  0.93389374  0.02326888     0.87700
O417        O  0.08152488  0.99475368  0.02963304    -0.75400
O418        O  0.96772554  0.03292996  0.97591747    -0.88200
O419        O  0.93011703  0.98918475  0.10392230    -0.81000
C420        C  0.88589063  0.05826469  0.02753137     0.92800
C421        C  0.98864035  0.11670800  0.95280441     0.92700
Mg422      Mg  0.00482374  0.95463921  0.08209564     1.58000
O423        O  0.00665915  0.89727451  0.07970389    -0.80900
O424        O  0.00301210  0.01120031  0.08842783    -0.75200
O425        O  0.91169978  0.07122007  0.01444429    -0.81000
O426        O  0.04169765  0.03637285  0.89588151    -0.82700
O427        O  0.10090179  0.92220056  0.00368903    -0.81000
C428        C  0.98697852  0.03467341  0.07443884     0.87100
O429        O  0.04285893  0.95928262  0.04459086    -0.88200
O430        O  0.96826842  0.95645379  0.04325394    -0.88300
O431        O  0.98596519  0.92014196  0.00629798    -0.75300
Mg432      Mg  0.96865312  0.06948121  0.01460226     1.58000
O433        O  0.88803132  0.03275235  0.04637451    -0.82700
H434        H  0.07361541  0.06451345  0.99952216    -0.06400
O435        O  0.04093091  0.96201168  0.97052072    -0.88000
H436        H  0.01968364  0.93137446  0.93816813    -0.06300
H437        H  0.07361928  0.97978369  0.07739474    -0.06500
C438        C  0.02246855  0.95655670  0.94667848     0.87100
C439        C  0.04794435  0.05756949  0.99616301     0.87700
C440        C  0.06638170  0.97757438  0.05160825     0.87700
H441        H  0.93735873  0.92638663  0.01933402    -0.06400
O442        O  0.92827193  0.99815606  0.98971946    -0.75500
Mg443      Mg  0.04315826  0.92323074  0.00540313     1.58000
H444        H  0.93627968  0.01456651  0.94251994    -0.06400
C445        C  0.06494930  0.01527592  0.89086903     0.92700
O446        O  0.12171370  0.96152230  0.97082731    -0.82700
C447        C  0.12553433  0.93591165  0.98888626     0.92800
O448        O  0.97068318  0.11330028  0.97887820    -0.82700
Mg449      Mg  0.93062309  0.99388750  0.04659287     1.58200
O450        O  0.07885642  0.00006697  0.91500445    -0.81000
O451        O  0.96644556  0.95286654  0.12478291    -0.82700
O452        O  0.51585175  0.97455317  0.44400540    -0.88300
C453        C  0.43067892  0.98311096  0.49708970     0.87700
Mg454      Mg  0.55881846  0.95135993  0.46447153     1.58100
O455        O  0.47559844  0.05621824  0.48898626    -0.88000
O456        O  0.50207615  0.02295993  0.42321010    -0.75300
C457        C  0.57150323  0.01431363  0.61751589     0.92800
O458        O  0.48535530  0.92569828  0.49822247    -0.75200
O459        O  0.58028863  0.98887589  0.60078783    -0.82700
Mg460      Mg  0.47031139  0.94822219  0.44751074     1.58000
C461        C  0.48999410  0.11895270  0.56610025     0.92700
O462        O  0.45351984  0.96726507  0.39462094    -0.80900
H463        H  0.49741686  0.09016886  0.45997859    -0.06300
C464        C  0.48714079  0.00648813  0.57552548     0.87700
O465        O  0.57981055  0.00223356  0.47813827    -0.75400
O466        O  0.44889094  0.98941322  0.47282967    -0.88200
O467        O  0.46657535  0.10636955  0.54917495    -0.81000
C468        C  0.38573521  0.06536799  0.48952759     0.92800
C469        C  0.43601256  0.99150328  0.38349895     0.92700
Mg470      Mg  0.53807179  0.05611333  0.55226850     1.58000
O471        O  0.55433080  0.03794952  0.60490985    -0.80900
O472        O  0.52370724  0.07808010  0.50132812    -0.75200
O473        O  0.39918690  0.04895249  0.46598466    -0.81000
O474        O  0.49258103  0.90277989  0.42389996    -0.82700
O475        O  0.61033359  0.95286479  0.53419470    -0.81000
C476        C  0.49846649  0.07561578  0.48261568     0.87100
O477        O  0.56013207  0.01432511  0.52803147    -0.88200
O478        O  0.49246053  0.02992711  0.55629447    -0.88300
O479        O  0.50656649  0.98143644  0.57704688    -0.75300
Mg480      Mg  0.45142079  0.03552761  0.44727623     1.58000
O481        O  0.40190324  0.07484848  0.51478778    -0.82700
H482        H  0.54357261  0.99719397  0.40930587    -0.06400
O483        O  0.53344601  0.94736845  0.51140465    -0.88000
H484        H  0.51120429  0.91313095  0.53973247    -0.06300
H485        H  0.59254860  0.04325295  0.50393729    -0.06500
C486        C  0.51040951  0.92797966  0.51728519     0.87100
C487        C  0.52129102  0.99780266  0.42462911     0.87700
C488        C  0.57834705  0.02067629  0.50379207     0.87700
H489        H  0.46476143  0.00684740  0.59071551    -0.06400
O490        O  0.42875613  0.00196996  0.52242239    -0.75500
Mg491      Mg  0.55755572  0.96796346  0.55380419     1.58000
H492        H  0.41675883  0.96034759  0.49718538    -0.06400
C493        C  0.51808307  0.88615968  0.43277742     0.92700
O494        O  0.60675879  0.92988306  0.48390798    -0.82700
C495        C  0.62354083  0.93770948  0.50937012     0.92800
O496        O  0.42761538  0.01544135  0.40216620    -0.82700
Mg497      Mg  0.44953583  0.05321016  0.53538898     1.58200
O498        O  0.54157152  0.89865379  0.44968581    -0.81000
O499        O  0.51543531  0.10220177  0.57507610    -0.82700
C500        C  0.24923204  0.11652574  0.48988882    -0.02400
O501        O  0.53822815  0.03317923  0.96694647    -0.88300
C502        C  0.54534687  0.93584507  0.98817359     0.87700
Mg503      Mg  0.54163886  0.07052806  0.00369516     1.58100
O504        O  0.46416757  0.96341244  0.97139990    -0.88000
O505        O  0.50225996  0.01764144  0.92930379    -0.75300
C506        C  0.44542104  0.01515104  0.12631777     0.92800
O507        O  0.58050235  0.99685158  0.02364553    -0.75200
O508        O  0.46817343  0.03641061  0.12167349    -0.82700
Mg509      Mg  0.57637225  0.99587820  0.96647606     1.58000
C510        C  0.38387561  0.93656838  0.02918981     0.92700
O511        O  0.57508823  0.99517670  0.90902959    -0.80900
H512        H  0.43144813  0.98404042  0.94006162    -0.06300
C513        C  0.48763485  0.95677126  0.06883747     0.87700
O514        O  0.48436802  0.07467772  0.00591758    -0.75400
O515        O  0.53877829  0.95950198  0.96959722    -0.88200
O516        O  0.40902642  0.92419533  0.01372823    -0.81000
C517        C  0.48327901  0.87984735  0.94585903     0.92800
C518        C  0.56138890  0.98132329  0.88413221     0.92700
Mg519      Mg  0.42980646  0.99963847  0.04527467     1.58000
O520        O  0.43193488  0.00021501  0.10206094    -0.80900
O521        O  0.42490816  0.99794451  0.98828108    -0.75200
O522        O  0.49840778  0.90397679  0.93198162    -0.81000
O523        O  0.61845453  0.03321869  0.96577926    -0.82700
O524        O  0.50748826  0.09325563  0.07897459    -0.81000
C525        C  0.43972723  0.98141962  0.96550810     0.87100
O526        O  0.46769752  0.03642944  0.04119085    -0.88200
O527        O  0.46888991  0.96299172  0.04524676    -0.88300
O528        O  0.50426879  0.97919165  0.08306862    -0.75300
Mg529      Mg  0.50069177  0.96087262  0.93238505     1.58000
O530        O  0.46545169  0.88363823  0.97196539    -0.82700
H531        H  0.51600317  0.06531272  0.93608082    -0.06400
O532        O  0.54233606  0.03247990  0.04080092    -0.88000
H533        H  0.57402550  0.01015789  0.07205285    -0.06300
H534        H  0.43603317  0.06820951  0.01946522    -0.06500
C535        C  0.56605882  0.01349852  0.04658052     0.87100
C536        C  0.51918880  0.03977787  0.94366795     0.87700
C537        C  0.46159603  0.06016407  0.02249738     0.87700
H538        H  0.49080511  0.93134906  0.07684248    -0.06400
O539        O  0.52311620  0.92170638  0.00569580    -0.75500
Mg540      Mg  0.50547714  0.03590463  0.07889443     1.58000
H541        H  0.57098962  0.92776747  0.99051789    -0.06400
C542        C  0.62292139  0.05719078  0.98575046     0.92700
O543        O  0.54278246  0.11233813  0.04059248    -0.82700
C544        C  0.52350928  0.11705233  0.06541876     0.92800
O545        O  0.53765460  0.96092655  0.88812170    -0.82700
Mg546      Mg  0.46614706  0.92540189  0.00912760     1.58200
O547        O  0.59909543  0.07042500  0.00232991    -0.81000
O548        O  0.38700170  0.96200508  0.04755434    -0.82700
C549        C  0.50056892  0.24814455  0.12774179    -0.02400
O550        O  0.52327848  0.54718075  0.99918733    -0.88300
C551        C  0.51256750  0.49670188  0.91364271     0.87700
Mg552      Mg  0.54929799  0.52857860  0.04121974     1.58100
O553        O  0.44016553  0.50284126  0.96218897    -0.88000
O554        O  0.47347628  0.56702101  0.98780620    -0.75300
C555        C  0.48721431  0.37888499  0.06342169     0.92800
O556        O  0.57100637  0.49326575  0.96681422    -0.75200
O557        O  0.51186794  0.39678392  0.07119066    -0.82700
Mg558      Mg  0.54798615  0.54399939  0.95229940     1.58000
C559        C  0.38193776  0.42424110  0.98221470     0.92700
O560        O  0.52716482  0.59567746  0.93815270    -0.80900
H561        H  0.40578022  0.53080969  0.98537556    -0.06300
C562        C  0.49463820  0.41787168  0.97617280     0.87700
O563        O  0.49919731  0.51591527  0.06611609    -0.75400
O564        O  0.50578494  0.52039134  0.93208588    -0.88200
O565        O  0.39368547  0.44040584  0.95748971    -0.81000
C566        C  0.42536650  0.50227405  0.87354897     0.92800
C567        C  0.50220291  0.60953117  0.92407826     0.92700
Mg568      Mg  0.44495462  0.44129730  0.02757102     1.58000
O569        O  0.46395537  0.38941528  0.04460299    -0.80900
O570        O  0.42108265  0.49095699  0.01229063    -0.75200
O571        O  0.44053485  0.52776072  0.88431002    -0.81000
O572        O  0.59505307  0.56742113  0.97136617    -0.82700
O573        O  0.55104360  0.46147628  0.09875187    -0.81000
C574        C  0.42143260  0.50887836  0.98616527     0.87100
O575        O  0.48684568  0.46658487  0.04775835    -0.88200
O576        O  0.47087024  0.43710838  0.98105026    -0.88300
O577        O  0.51943454  0.41648617  0.99572368    -0.75300
Mg578      Mg  0.45847425  0.54540029  0.93723798     1.58000
O579        O  0.42238490  0.47627328  0.89132401    -0.82700
H580        H  0.49989233  0.58018309  0.02844205    -0.06400
O581        O  0.55385716  0.48154588  0.01791574    -0.88000
H582        H  0.58569292  0.45237206  0.99259146    -0.06300
H583        H  0.45837075  0.49053443  0.08123617    -0.06500
C584        C  0.57097561  0.47494958  0.99280156     0.87100
C585        C  0.49930919  0.56562383  0.00588452     0.87700
C586        C  0.48065084  0.49063494  0.06588271     0.87700
H587        H  0.49464201  0.40225888  0.95432948    -0.06400
O588        O  0.49547771  0.47043578  0.91387327    -0.75500
Mg589      Mg  0.53359418  0.44100569  0.04563704     1.58000
H590        H  0.53461186  0.49778945  0.89801574    -0.06400
C591        C  0.61299595  0.55979500  0.99625494     0.92700
O592        O  0.57323986  0.51025914  0.08753395    -0.82700
C593        C  0.56805091  0.48657255  0.10771452     0.92800
O594        O  0.47666241  0.59339593  0.91544732    -0.82700
Mg595      Mg  0.44576591  0.45631572  0.93799325     1.58200
O596        O  0.60169395  0.54314193  0.02084233    -0.81000
O597        O  0.39913924  0.41711908  0.00772213    -0.82700
O598        O  0.96481664  0.54406768  0.53507571    -0.88300
C599        C  0.06240736  0.51938314  0.54301141     0.87700
Mg600      Mg  0.92647071  0.50840886  0.53697806     1.58100
O601        O  0.03700050  0.53804224  0.46197429    -0.88000
O602        O  0.98224823  0.58128906  0.49923943    -0.75300
C603        C  0.98423348  0.38341085  0.44231719     0.92800
O604        O  0.99796599  0.48617769  0.57901302    -0.75200
O605        O  0.96461766  0.38866009  0.46695082    -0.82700
Mg606      Mg  0.00096906  0.54266438  0.57426848     1.58000
C607        C  0.06548552  0.48326303  0.38116164     0.92700
O608        O  0.00479960  0.59928507  0.57450145    -0.80900
H609        H  0.01596965  0.56910673  0.42921376    -0.06300
C610        C  0.04351881  0.44134160  0.48620014     0.87700
O611        O  0.92590953  0.50518493  0.47971977    -0.75400
O612        O  0.03893320  0.53850423  0.53664005    -0.88200
O613        O  0.07750614  0.50037756  0.40481329    -0.81000
C614        C  0.12093900  0.56234699  0.48191158     0.92800
C615        C  0.02047606  0.62321027  0.56097883     0.92700
Mg616      Mg  0.00226195  0.46414221  0.42744779     1.58000
O617        O  0.00062694  0.40659237  0.42822536    -0.80900
O618        O  0.00358600  0.52096789  0.42273635    -0.75200
O619        O  0.09631574  0.57604723  0.49699188    -0.81000
O620        O  0.96156867  0.54517645  0.61591966    -0.82700
O621        O  0.90501641  0.43161745  0.50496750    -0.81000
C622        C  0.01913836  0.54380360  0.43758896     0.87100
O623        O  0.96375341  0.46827730  0.46456835    -0.88200
O624        O  0.03816795  0.46415915  0.46616159    -0.88300
O625        O  0.02024916  0.42799975  0.50309174    -0.75300
Mg626      Mg  0.03912609  0.57628070  0.49840764     1.58000
O627        O  0.11745882  0.53744561  0.46306791    -0.82700
H628        H  0.93382165  0.57614115  0.51289259    -0.06400
O629        O  0.96410279  0.47023721  0.53975113    -0.88000
H630        H  0.98350741  0.43863618  0.57295383    -0.06300
H631        H  0.93380220  0.49081598  0.43184752    -0.06500
C632        C  0.98142365  0.46396949  0.56438313     0.87100
C633        C  0.95923174  0.56768927  0.51614495     0.87700
C634        C  0.94073626  0.48772004  0.45765687     0.87700
H635        H  0.06892197  0.43330036  0.49034119    -0.06400
O636        O  0.07747609  0.50271002  0.52045750    -0.75500
Mg637      Mg  0.96300975  0.43175160  0.50354718     1.58000
H638        H  0.06965774  0.51597845  0.56870005    -0.06400
C639        C  0.93512849  0.52826445  0.61933738     0.92700
O640        O  0.88342646  0.47220734  0.53631472    -0.82700
C641        C  0.88005051  0.44612625  0.51897174     0.92800
O642        O  0.03899225  0.61902848  0.53536479    -0.82700
Mg643      Mg  0.07553615  0.50093920  0.46305733     1.58200
O644        O  0.92284994  0.51269305  0.59466808    -0.81000
O645        O  0.04189117  0.46289093  0.38613533    -0.82700
O646        O  0.03307463  0.46175413  0.03575070    -0.88300
C647        C  0.04052000  0.55806007  0.01130253     0.87700
Mg648      Mg  0.03362536  0.42362007  0.99939474     1.58100
O649        O  0.96022039  0.53394878  0.03398575    -0.88000
O650        O  0.99894984  0.47903305  0.07521513    -0.75300
C651        C  0.93229282  0.47693345  0.88026385     0.92800
O652        O  0.07216729  0.49543772  0.97513348    -0.75200
O653        O  0.95674248  0.45697487  0.88367767    -0.82700
Mg654      Mg  0.07158819  0.49800200  0.03238261     1.58000
C655        C  0.87838653  0.56074622  0.98158701     0.92700
O656        O  0.07527890  0.50128189  0.09009231    -0.80900
H657        H  0.92901881  0.51403745  0.06738945    -0.06300
C658        C  0.97867545  0.53754679  0.93450116     0.87700
O659        O  0.97653027  0.42138121  0.00093862    -0.75400
O660        O  0.03437842  0.53519456  0.03098002    -0.88200
O661        O  0.90293160  0.57445228  0.99597399    -0.81000
C662        C  0.98437200  0.61715302  0.05630911     0.92800
C663        C  0.06281778  0.51720750  0.11484290     0.92700
Mg664      Mg  0.92258008  0.49632640  0.96267136     1.58000
O665        O  0.92013108  0.49307774  0.90503148    -0.80900
O666        O  0.92093180  0.49941735  0.01983564    -0.75200
O667        O  0.99777324  0.59177461  0.06976639    -0.81000
O668        O  0.11313916  0.45993240  0.03040602    -0.82700
O669        O  0.99636523  0.40033817  0.92507467    -0.81000
C670        C  0.93628385  0.51624153  0.04146827     0.87100
O671        O  0.95937319  0.45839381  0.96451931    -0.88200
O672        O  0.96112822  0.53250432  0.95950495    -0.88300
O673        O  0.99415794  0.51422044  0.91955651    -0.75300
Mg674      Mg  0.99819400  0.53557460  0.07055307     1.58000
O675        O  0.96470940  0.61489721  0.03165529    -0.82700
H676        H  0.01237004  0.43088886  0.06883158    -0.06400
O677        O  0.03314538  0.46058951  0.96101368    -0.88000
H678        H  0.06338002  0.48166421  0.92744999    -0.06300
H679        H  0.92801349  0.42862561  0.98898131    -0.06500
C680        C  0.05661980  0.47885786  0.95344913     0.87100
C681        C  0.01523187  0.45617194  0.06042735     0.87700
C682        C  0.95355265  0.43566424  0.98447242     0.87700
H683        H  0.98176563  0.56268130  0.92573003    -0.06400
O684        O  0.01786397  0.57251823  0.99459246    -0.75500
Mg685      Mg  0.99529121  0.45748282  0.92458007     1.58000
H686        H  0.06616479  0.56496491  0.00711353    -0.06400
C687        C  0.11586201  0.43513322  0.01106453     0.92700
O688        O  0.03175538  0.38100805  0.96325391    -0.82700
C689        C  0.01223848  0.37659985  0.93896141     0.92800
O690        O  0.03696985  0.53545619  0.11168213    -0.82700
Mg691      Mg  0.96085077  0.57135930  0.99548657     1.58200
O692        O  0.09086110  0.42190079  0.99726935    -0.81000
O693        O  0.88171557  0.53502263  0.96359463    -0.82700
C694        C  0.12725665  0.49658419  0.24620318    -0.02400
O695        O  0.53353600  0.54013820  0.45791951    -0.88300
C696        C  0.43587174  0.51765326  0.45488129     0.87700
Mg697      Mg  0.57282616  0.50476863  0.45214348     1.58100
O698        O  0.46518639  0.53290768  0.53537205    -0.88000
O699        O  0.51764542  0.57665909  0.49550607    -0.75300
C700        C  0.52405504  0.37861081  0.54841018     0.92800
O701        O  0.49794410  0.48360301  0.41578885    -0.75200
O702        O  0.54344352  0.38241482  0.52332163    -0.82700
Mg703      Mg  0.49449304  0.54010808  0.42140077     1.58000
C704        C  0.44173693  0.47142485  0.61394219     0.92700
O705        O  0.49088502  0.59672069  0.42381058    -0.80900
H706        H  0.48578222  0.56357324  0.56813023    -0.06300
C707        C  0.46127400  0.43608564  0.50921872     0.87700
O708        O  0.57833296  0.50067096  0.50905326    -0.75400
O709        O  0.45960074  0.53580402  0.46108644    -0.88200
O710        O  0.42763642  0.48762815  0.59050645    -0.81000
C711        C  0.37967460  0.55676606  0.52000682     0.92800
C712        C  0.47703325  0.62121608  0.43869128     0.92700
Mg713      Mg  0.50570879  0.45963881  0.56525959     1.58000
O714        O  0.50995552  0.40349886  0.56232379    -0.80900
O715        O  0.50190378  0.51594589  0.57198751    -0.75200
O716        O  0.40418461  0.57106152  0.50573788    -0.81000
O717        O  0.52997817  0.54255864  0.37661959    -0.82700
O718        O  0.59741508  0.43005385  0.48205276    -0.81000
C719        C  0.48384970  0.53850536  0.55903719     0.87100
O720        O  0.54122382  0.46461304  0.52584710    -0.88200
O721        O  0.46733415  0.45950627  0.52800032    -0.88300
O722        O  0.48375594  0.42240165  0.49126286    -0.75300
Mg723      Mg  0.46081735  0.57229940  0.50010099     1.58000
O724        O  0.38383376  0.53087046  0.53772637    -0.82700
H725        H  0.56530494  0.57141193  0.47897535    -0.06400
O726        O  0.53559746  0.46658488  0.45159326    -0.88000
H727        H  0.51363695  0.43585856  0.41982012    -0.06300
H728        H  0.57347067  0.48527366  0.55704634    -0.06500
C729        C  0.51614017  0.46099324  0.42853813     0.87100
C730        C  0.53985432  0.56322052  0.47704189     0.87700
C731        C  0.56480565  0.48314357  0.53170685     0.87700
H732        H  0.43590034  0.42772463  0.50721770    -0.06400
O733        O  0.42248813  0.49961098  0.47711504    -0.75500
Mg734      Mg  0.54060383  0.42747446  0.48708963     1.58000
H735        H  0.42710243  0.51615851  0.42952399    -0.06400
C736        C  0.55631540  0.52541082  0.37147591     0.92700
O737        O  0.61777620  0.46893757  0.44851172    -0.82700
C738        C  0.62210894  0.44404145  0.46761779     0.92800
O739        O  0.45812981  0.61697011  0.46404490    -0.82700
Mg740      Mg  0.42788960  0.49469800  0.53375126     1.58200
O741        O  0.57115712  0.51008494  0.39509374    -0.81000
O742        O  0.46894950  0.45555714  0.60918712    -0.82700
C743        C  0.00219330  0.75134313  0.62966423    -0.02400
O744        O  0.28742697  0.77915877  0.79187820    -0.88300
C745        C  0.26439426  0.68174030  0.79643702     0.87700
Mg746      Mg  0.25129741  0.81869133  0.79411064     1.58100
O747        O  0.28819368  0.71198355  0.71854737    -0.88000
O748        O  0.32898554  0.76227199  0.76005848    -0.75300
C749        C  0.13292767  0.76718818  0.69345645     0.92800
O750        O  0.22764708  0.74459419  0.83121924    -0.75200
O751        O  0.13532971  0.78666501  0.71819598    -0.82700
Mg752      Mg  0.28475997  0.74112872  0.82947937     1.58000
C753        C  0.23774341  0.69138401  0.63491484     0.92700
O754        O  0.34220367  0.73812208  0.83123818    -0.80900
H755        H  0.32108263  0.73575568  0.68967500    -0.06300
C756        C  0.18933471  0.70708751  0.73766442     0.87700
O757        O  0.25181498  0.82381041  0.73738123    -0.75400
O758        O  0.28353808  0.70512058  0.79160693    -0.88200
O759        O  0.25364784  0.67771122  0.65860734    -0.81000
C760        C  0.30963440  0.62646452  0.73507450     0.92800
C761        C  0.36781547  0.72307823  0.81938159     0.92700
Mg762      Mg  0.21563605  0.75118477  0.68255082     1.58000
O763        O  0.15844271  0.75250395  0.68103684    -0.80900
O764        O  0.27304341  0.74939956  0.68148082    -0.75200
O765        O  0.32275980  0.64810206  0.75382442    -0.81000
O766        O  0.28367340  0.77737073  0.87180172    -0.82700
O767        O  0.17632232  0.84350430  0.75821305    -0.81000
C768        C  0.29521208  0.73209872  0.69620991     0.87100
O769        O  0.21619466  0.78695712  0.72048081    -0.88200
O770        O  0.21373891  0.71353433  0.71973902    -0.88300
O771        O  0.17372122  0.72930766  0.75416776    -0.75300
Mg772      Mg  0.32413067  0.70554404  0.75669386     1.58000
O773        O  0.28701262  0.63358181  0.71432243    -0.82700
H774        H  0.32150368  0.81022767  0.77354061    -0.06400
O775        O  0.21300028  0.78221983  0.79415100    -0.88000
H776        H  0.18004101  0.76033650  0.82443612    -0.06300
H777        H  0.23823577  0.81862933  0.68913282    -0.06500
C778        C  0.20587753  0.76284440  0.81710816     0.87100
C779        C  0.31297348  0.78498648  0.77545854     0.87700
C780        C  0.23496646  0.81037041  0.71460241     0.87700
H781        H  0.18171976  0.68160268  0.74020141    -0.06400
O782        O  0.24856157  0.66852226  0.77272690    -0.75500
Mg783      Mg  0.17656332  0.78610890  0.75653854     1.58000
H784        H  0.26020639  0.67304766  0.82161952    -0.06400
C785        C  0.26547959  0.80305497  0.87553855     0.92700
O786        O  0.21411491  0.86269143  0.79326933    -0.82700
C787        C  0.18997523  0.86762071  0.77320996     0.92800
O788        O  0.36502039  0.70232827  0.79577418    -0.82700
Mg789      Mg  0.25046400  0.67549188  0.71589597     1.58200
O790        O  0.25151944  0.81777192  0.85108684    -0.81000
O791        O  0.21716586  0.71504792  0.63978012    -0.82700
C792        C  0.49832759  0.74901776  0.88237491    -0.02400
C793        C  0.40156475  0.73114304  0.83263824    -0.00100
C794        C  0.42960221  0.71122707  0.82486969    -0.12000
C795        C  0.46151866  0.71814197  0.83761122     0.02100
C796        C  0.46628106  0.74528325  0.85976856    -0.00200
C797        C  0.43767915  0.76574095  0.86565378    -0.11900
C798        C  0.40661567  0.75966563  0.85199793     0.02000
H799        H  0.42657717  0.68975349  0.80907106     0.15000
H800        H  0.43776878  0.78601306  0.88303478     0.15000
C801        C  0.38051346  0.78383142  0.85874421     0.36700
C802        C  0.48834799  0.69584034  0.82837217     0.36600
N803        N  0.35991790  0.80342746  0.86411591    -0.43700
N804        N  0.50956878  0.67779159  0.82050448    -0.43700
C805        C  0.03510357  0.75116536  0.65090816    -0.00100
C806        C  0.06512136  0.74564424  0.63238898    -0.12000
C807        C  0.09652016  0.75070200  0.64551270     0.02100
C808        C  0.09967653  0.76089969  0.67879856    -0.00200
C809        C  0.07064805  0.76334747  0.69871211    -0.11900
C810        C  0.03870229  0.75763639  0.68558040     0.02000
H811        H  0.06406931  0.74032774  0.60596402     0.15000
H812        H  0.07298847  0.76906730  0.72498913     0.15000
C813        C  0.01142779  0.75668705  0.70914548     0.36700
C814        C  0.12477111  0.74718602  0.62310330     0.36600
N815        N  0.99019410  0.75557861  0.72883171    -0.43700
N816        N  0.14727334  0.74429512  0.60506263    -0.43700
C817        C  0.07858431  0.51387051  0.14830259    -0.00100
C818        C  0.05893554  0.51605933  0.17752593    -0.12000
C819        C  0.07245867  0.51075845  0.20956457     0.02100
C820        C  0.10713790  0.50367598  0.21314376    -0.00200
C821        C  0.12624594  0.50169874  0.18304548    -0.11900
C822        C  0.11277154  0.50700933  0.15157566     0.02000
H823        H  0.03241050  0.52079739  0.17525473     0.15000
H824        H  0.15284692  0.49694241  0.18434634     0.15000
C825        C  0.13523490  0.50643232  0.12319658     0.36700
C826        C  0.04904021  0.51052063  0.23698129     0.36600
N827        N  0.15330383  0.50605789  0.10054474    -0.43700
N828        N  0.02926436  0.51007284  0.25816305    -0.43700
C829        C  0.01716255  0.65634186  0.57663788    -0.00100
C830        C  0.01414566  0.65742088  0.61127853    -0.12000
C831        C  0.00918671  0.68717240  0.62809280     0.02100
C832        C  0.00564884  0.71778020  0.61018658    -0.00200
C833        C  0.00948474  0.71649542  0.57510985    -0.11900
C834        C  0.01540494  0.68631220  0.55843695     0.02000
H835        H  0.01593213  0.63460687  0.62556733     0.15000
H836        H  0.00882409  0.73898302  0.56044725     0.15000
C837        C  0.01903004  0.68680410  0.52261284     0.36700
C838        C  0.00686964  0.68483612  0.66404960     0.36600
N839        N  0.02208305  0.68726908  0.49389563    -0.43700
N840        N  0.00492087  0.68196961  0.69271771    -0.43700
C841        C  0.07973703  0.48659687  0.34696589    -0.00100
C842        C  0.07964940  0.51732713  0.33047483    -0.12000
C843        C  0.09275966  0.52091006  0.29780088     0.02100
C844        C  0.10696415  0.49318069  0.28035182    -0.00200
C845        C  0.10736943  0.46270064  0.29866252    -0.11900
C846        C  0.09360984  0.45919885  0.33056809     0.02000
H847        H  0.06910872  0.53872789  0.34318089     0.15000
H848        H  0.12014423  0.44088559  0.28981234     0.15000
C849        C  0.09627369  0.42732804  0.34697185     0.36700
C850        C  0.09173097  0.55376595  0.28351450     0.36600
N851        N  0.09861678  0.40182105  0.36001675    -0.43700
N852        N  0.09059593  0.58026600  0.27249433    -0.43700
C853        C  0.50292689  0.64554202  0.91767032    -0.00100
C854        C  0.47511047  0.66543834  0.92562219    -0.12000
C855        C  0.47425869  0.69949533  0.91799270     0.02100
C856        C  0.50166468  0.71467995  0.90113308    -0.00200
C857        C  0.52996191  0.69369098  0.89491333    -0.11900
C858        C  0.53090782  0.66024671  0.90330511     0.02000
H859        H  0.45364555  0.65415810  0.93748896     0.15000
H860        H  0.55120770  0.70165204  0.88059591     0.15000
C861        C  0.55998233  0.64085971  0.89376394     0.36700
C862        C  0.44405846  0.71742462  0.92652368     0.36600
N863        N  0.58318163  0.62534533  0.88603110    -0.43700
N864        N  0.41984436  0.73145776  0.93399983    -0.43700
C865        C  0.49441966  0.28226168  0.10958641    -0.00100
C866        C  0.48195557  0.28518431  0.07667932    -0.12000
C867        C  0.47797493  0.31635000  0.06104819     0.02100
C868        C  0.48563256  0.34550307  0.07848240    -0.00200
C869        C  0.49468166  0.34315418  0.11165719    -0.11900
C870        C  0.49874221  0.31279259  0.12739037     0.02000
H871        H  0.47512452  0.26357397  0.06273959     0.15000
H872        H  0.49953970  0.36570560  0.12544113     0.15000
C873        C  0.51002907  0.31549390  0.16133998     0.36700
C874        C  0.46719329  0.31769418  0.02686095     0.36600
N875        N  0.52024110  0.32004182  0.18780236    -0.43700
N876        N  0.45853939  0.31880955  0.99943799    -0.43700
C877        C  0.49417719  0.78184229  0.90295742    -0.00100
C878        C  0.49373901  0.81114798  0.88310845    -0.12000
C879        C  0.49013336  0.84258697  0.89638353     0.02100
C880        C  0.48657384  0.84647780  0.93095208    -0.00200
C881        C  0.48716409  0.81811424  0.95148029    -0.11900
C882        C  0.49148715  0.78604689  0.93812558     0.02000
H883        H  0.49520948  0.80925408  0.85616619     0.15000
H884        H  0.48524132  0.82112418  0.97830050     0.15000
C885        C  0.49481210  0.75925549  0.96170694     0.36700
C886        C  0.48913096  0.87025146  0.87340374     0.36600
N887        N  0.49790722  0.73841741  0.98136044    -0.43700
N888        N  0.48850283  0.89229665  0.85490856    -0.43700
C889        C  0.51958261  0.15087006  0.07952731    -0.00100
C890        C  0.51153766  0.15333984  0.11319517    -0.12000
C891        C  0.50560854  0.18379957  0.12828177     0.02100
C892        C  0.50744027  0.21421378  0.10957115    -0.00200
C893        C  0.51640260  0.21138085  0.07554294    -0.11900
C894        C  0.52234507  0.18032509  0.06054820     0.02000
H895        H  0.50955711  0.13094142  0.12810510     0.15000
H896        H  0.51928716  0.23300443  0.06018733     0.15000
C897        C  0.53014665  0.17950979  0.02535413     0.36700
C898        C  0.49587869  0.18163257  0.16301547     0.36600
N899        N  0.53636181  0.17890295  0.99712740    -0.43700
N900        N  0.48768965  0.17840540  0.19058252    -0.43700
C901        C  0.28362527  0.09813256  0.48628621    -0.00100
C902        C  0.31031633  0.11802816  0.47419608    -0.12000
C903        C  0.34314927  0.10707752  0.47397344     0.02100
C904        C  0.35082377  0.07561110  0.48627562    -0.00200
C905        C  0.32506137  0.05426931  0.49581592    -0.11900
C906        C  0.29150664  0.06487906  0.49538471     0.02000
H907        H  0.30571773  0.14348675  0.46677316     0.15000
H908        H  0.33125371  0.02932183  0.50391281     0.15000
C909        C  0.26667096  0.04057167  0.50334759     0.36700
C910        C  0.36875562  0.12897212  0.46165487     0.36600
N911        N  0.24726439  0.02037696  0.50934466    -0.43700
N912        N  0.38927234  0.14635428  0.45160321    -0.43700
C913        C  0.99683474  0.84996142  0.58078892    -0.00100
C914        C  0.97194107  0.82648832  0.57472455    -0.12000
C915        C  0.97493127  0.79343357  0.58642487     0.02100
C916        C  0.00245060  0.78345504  0.60665748    -0.00200
C917        C  0.02822493  0.80707285  0.60960474    -0.11900
C918        C  0.02640833  0.83865209  0.59606615     0.02000
H919        H  0.94973460  0.83405865  0.56141818     0.15000
H920        H  0.04996155  0.80295439  0.62448121     0.15000
C921        C  0.05583899  0.85882143  0.59941775     0.36700
C922        C  0.94850121  0.77096708  0.57843471     0.36600
N923        N  0.07950075  0.87464828  0.60221765    -0.43700
N924        N  0.92730169  0.75308991  0.57164642    -0.43700
C925        C  0.14989026  0.07642165  0.51342227    -0.00100
C926        C  0.17394095  0.07718520  0.53857075    -0.12000
C927        C  0.20749161  0.08512484  0.53111714     0.02100
C928        C  0.21731211  0.09478569  0.49794327    -0.00200
C929        C  0.19281046  0.08981990  0.47310774    -0.11900
C930        C  0.16066501  0.07958682  0.48025364     0.02000
H931        H  0.16641529  0.07246562  0.56416474     0.15000
H932        H  0.19674504  0.09525327  0.44731460     0.15000
C933        C  0.13908515  0.07244579  0.45246666     0.36700
C934        C  0.23060952  0.08380634  0.55846432     0.36600
N935        N  0.12200561  0.06641095  0.43025811    -0.43700
N936        N  0.24873092  0.08219010  0.58069949    -0.43700
C937        C  0.43476263  0.00594798  0.16056742    -0.00100
C938        C  0.42153181  0.97431306  0.16549548    -0.12000
C939        C  0.40714946  0.96508300  0.19591589     0.02100
C940        C  0.40321364  0.98911501  0.22164460    -0.00200
C941        C  0.42362800  0.01750167  0.21896684    -0.11900
C942        C  0.43822345  0.02667185  0.18848816     0.02000
H943        H  0.42234134  0.95651129  0.14526952     0.15000
H944        H  0.42394936  0.03524561  0.23914936     0.15000
C945        C  0.45356350  0.05875763  0.18604917     0.36700
C946        C  0.39899792  0.93053079  0.19926136     0.36600
N947        N  0.46575425  0.08453037  0.18412390    -0.43700
N948        N  0.39327243  0.90252462  0.20062322    -0.43700
C949        C  0.39612659  0.99080764  0.28301408    -0.00100
C950        C  0.39770725  0.02045036  0.30152094    -0.12000
C951        C  0.41104384  0.02148243  0.33349879     0.02100
C952        C  0.42484593  0.99248687  0.34807140    -0.00200
C953        C  0.42853424  0.96442009  0.32791684    -0.11900
C954        C  0.41577689  0.96372072  0.29540560     0.02000
H955        H  0.38866147  0.04356957  0.29122576     0.15000
H956        H  0.44116428  0.94262870  0.33768676     0.15000
C957        C  0.42270417  0.93398704  0.27668422     0.36700
C958        C  0.41046820  0.05321136  0.35011603     0.36600
N959        N  0.42936551  0.90927754  0.26358730    -0.43700
N960        N  0.40988403  0.07871530  0.36320276    -0.43700
C961        C  0.14886785  0.42011865  0.00539808    -0.00100
C962        C  0.16991433  0.43216550  0.98019369    -0.12000
C963        C  0.20115001  0.41717445  0.97349635     0.02100
C964        C  0.21305561  0.39065891  0.99393839    -0.00200
C965        C  0.18933226  0.37748240  0.01715385    -0.11900
C966        C  0.15845384  0.39213188  0.02337444     0.02000
H967        H  0.16150148  0.45290864  0.96509337     0.15000
H968        H  0.19391350  0.35456052  0.03041027     0.15000
C969        C  0.13652725  0.37735482  0.04792555     0.36700
C970        C  0.21930148  0.42978363  0.94512433     0.36600
N971        N  0.11892518  0.36552887  0.06750192    -0.43700
N972        N  0.23246234  0.44145204  0.92222704    -0.43700
C973        C  0.28096345  0.38885835  0.98599065    -0.00100
C974        C  0.30877482  0.36733325  0.98038666    -0.12000
C975        C  0.34118955  0.37873659  0.97758713     0.02100
C976        C  0.34745393  0.41246462  0.98141221    -0.00200
C977        C  0.32089337  0.43430208  0.98848333    -0.11900
C978        C  0.28790827  0.42294606  0.99154458     0.02000
H979        H  0.30481512  0.34106875  0.97695856     0.15000
H980        H  0.32619999  0.46016661  0.99305018     0.15000
C981        C  0.26342643  0.44653800  0.00345111     0.36700
C982        C  0.36758991  0.35528854  0.96993003     0.36600
N983        N  0.24450542  0.46606484  0.01336277    -0.43700
N984        N  0.38859073  0.33645282  0.96351906    -0.43700
C985        C  0.14400429  0.46212710  0.23816632    -0.00100
C986        C  0.17889299  0.45682870  0.23883263    -0.12000
C987        C  0.19273276  0.42481490  0.23535411     0.02100
C988        C  0.17181100  0.39766177  0.22987377    -0.00200
C989        C  0.13796298  0.40295338  0.22560288    -0.11900
C990        C  0.12388683  0.43433424  0.22915597     0.02000
H991        H  0.19557581  0.47718986  0.24287075     0.15000
H992        H  0.12206113  0.38193457  0.22083863     0.15000
C993        C  0.08802038  0.43577575  0.22647796     0.36700
C994        C  0.22822301  0.42013422  0.23873655     0.36600
N995        N  0.05932749  0.43555899  0.22406395    -0.43700
N996        N  0.25667618  0.41631272  0.24144040    -0.43700
C997        C  0.23852177  0.16078392  0.38903743    -0.00100
C998        C  0.24504139  0.12716546  0.39314621    -0.12000
C999        C  0.24868865  0.11315771  0.42457995     0.02100
C1000       C  0.24493653  0.13287403  0.45429802    -0.00200
C1001       C  0.24018152  0.16735966  0.44958816    -0.11900
C1002       C  0.23640261  0.18119710  0.41746617     0.02000
H1003       H  0.24739116  0.11147418  0.37127488     0.15000
H1004       H  0.24013165  0.18397242  0.47061230     0.15000
C1005       C  0.23248254  0.21660997  0.41416042     0.36700
C1006       C  0.25442899  0.07766135  0.42487101     0.36600
N1007       N  0.22949636  0.24501785  0.41144227    -0.43700
N1008       N  0.25860526  0.04927061  0.42420600    -0.43700
C1009       C  0.46508587  0.24325096  0.14381197    -0.00100
C1010       C  0.44081109  0.23265121  0.12044465    -0.12000
C1011       C  0.40773904  0.22734214  0.12875679     0.02100
C1012       C  0.39700120  0.23234785  0.16141297    -0.00200
C1013       C  0.41962244  0.24312946  0.18528572    -0.11900
C1014       C  0.45319438  0.24927022  0.17704188     0.02000
H1015       H  0.44769796  0.22800552  0.09475701     0.15000
H1016       H  0.41051732  0.24816397  0.21036020     0.15000
C1017       C  0.47246236  0.26258470  0.20375374     0.36700
C1018       C  0.38506919  0.21720139  0.10300525     0.36600
N1019       N  0.48612490  0.27249819  0.22691539    -0.43700
N1020       N  0.36695444  0.20915714  0.08234870    -0.43700
C1021       C  0.32412688  0.08720697  0.24264308    -0.00100
C1022       C  0.31694169  0.06565753  0.26940179    -0.12000
C1023       C  0.32990446  0.03297659  0.27043992     0.02100
C1024       C  0.35282530  0.02168003  0.24545188    -0.00200
C1025       C  0.35497166  0.04169038  0.21647603    -0.11900
C1026       C  0.34166546  0.07373110  0.21494437     0.02000
H1027       H  0.30167340  0.07449390  0.29002963     0.15000
H1028       H  0.36766260  0.03277895  0.19435266     0.15000
C1029       C  0.34706379  0.09180866  0.18421328     0.36700
C1030       C  0.32097978  0.01265454  0.29872276     0.36600
N1031       N  0.35158239  0.10595281  0.15946642    -0.43700
N1032       N  0.31358819  0.99674271  0.32160773    -0.43700
C1033       C  0.25815371  0.32485446  0.08756688    -0.00100
C1034       C  0.25894168  0.30375285  0.05968290    -0.12000
C1035       C  0.25673687  0.31648472  0.02683064     0.02100
C1036       C  0.25314885  0.35123253  0.02168605    -0.00200
C1037       C  0.25534054  0.37168686  0.05041451    -0.11900
C1038       C  0.25736163  0.35910080  0.08252756     0.02000
H1039       H  0.26057906  0.27721249  0.06362855     0.15000
H1040       H  0.25360005  0.39830528  0.04784758     0.15000
C1041       C  0.25845740  0.38211493  0.11007045     0.36700
C1042       C  0.25964932  0.29318632  0.99983928     0.36600
N1043       N  0.25938642  0.40053548  0.13208362    -0.43700
N1044       N  0.26227577  0.27393073  0.97863337    -0.43700
C1045       C  0.99075294  0.28718177  0.39433395    -0.00100
C1046       C  0.01214992  0.29521585  0.42099352    -0.12000
C1047       C  0.01007914  0.32587829  0.43764039     0.02100
C1048       C  0.98637140  0.34982299  0.42788973    -0.00200
C1049       C  0.96502685  0.34268646  0.40201717    -0.11900
C1050       C  0.96707519  0.31272663  0.38475860     0.02000
H1051       H  0.03122292  0.27767554  0.42855636     0.15000
H1052       H  0.94719190  0.36157951  0.39429558     0.15000
C1053       C  0.94528622  0.31183666  0.35628472     0.36700
C1054       C  0.03302308  0.33256627  0.46418954     0.36600
N1055       N  0.92729568  0.31255375  0.33389059    -0.43700
N1056       N  0.05141444  0.33795502  0.48549146    -0.43700
C1057       C  0.00058544  0.22086916  0.39495148    -0.00100
C1058       C  0.99377475  0.21862427  0.42963054    -0.12000
C1059       C  0.99652485  0.18811615  0.44685133     0.02100
C1060       C  0.00586689  0.15909377  0.42950277    -0.00200
C1061       C  0.01243693  0.16092851  0.39558440    -0.11900
C1062       C  0.01007372  0.19068201  0.37830082     0.02000
H1063       H  0.98535659  0.24020193  0.44332035     0.15000
H1064       H  0.01948248  0.13848575  0.38226078     0.15000
C1065       C  0.02031377  0.18877915  0.34374041     0.36700
C1066       C  0.98859834  0.18688871  0.48196756     0.36600
N1067       N  0.03016638  0.18541323  0.31674709    -0.43700
N1068       N  0.98227703  0.18590258  0.51015950    -0.43700
C1069       C  0.03318253  0.25950395  0.35763488    -0.00100
C1070       C  0.06124934  0.24498780  0.37385184    -0.12000
C1071       C  0.09311299  0.24471359  0.36021052     0.02100
C1072       C  0.09978836  0.26244136  0.33075662    -0.00200
C1073       C  0.07398081  0.28234692  0.31754083    -0.11900
C1074       C  0.04126813  0.28191979  0.33130656     0.02000
H1075       H  0.05880470  0.23273316  0.39774873     0.15000
H1076       H  0.07922415  0.29804493  0.29619492     0.15000
C1077       C  0.01764203  0.30562493  0.31827080     0.36700
C1078       C  0.11841333  0.22582252  0.37767306     0.36600
N1079       N  0.99981433  0.32512079  0.30670844    -0.43700
N1080       N  0.13835672  0.21027352  0.39153786    -0.43700
C1081       C  0.89661719  0.99946085  0.22496743    -0.00100
C1082       C  0.91926396  0.97223060  0.22262654    -0.12000
C1083       C  0.93480097  0.96283374  0.19222833     0.02100
C1084       C  0.92897944  0.98138418  0.16285087    -0.00200
C1085       C  0.90920102  0.00977636  0.16544386    -0.11900
C1086       C  0.89215844  0.01833391  0.19455325     0.02000
H1087       H  0.92313635  0.95670127  0.24437114     0.15000
H1088       H  0.90526380  0.02498597  0.14340227     0.15000
C1089       C  0.86752325  0.04392528  0.18822652     0.36700
C1090       C  0.95532164  0.93329673  0.19183499     0.36600
N1091       N  0.84821355  0.06398338  0.18058989    -0.43700
N1092       N  0.97171726  0.90954746  0.19160891    -0.43700
C1093       C  0.89211990  0.00748522  0.29139988    -0.00100
C1094       C  0.92719697  0.00974771  0.29395382    -0.12000
C1095       C  0.94263390  0.01438268  0.32511523     0.02100
C1096       C  0.92309468  0.01816880  0.35427870    -0.00200
C1097       C  0.88866577  0.01758839  0.35189478    -0.11900
C1098       C  0.87309364  0.01221728  0.32159707     0.02000
H1099       H  0.94284012  0.00772580  0.27198538     0.15000
H1100       H  0.87367110  0.01982649  0.37448685     0.15000
C1101       C  0.83729889  0.00936920  0.32363313     0.36700
C1102       C  0.97849353  0.01373080  0.32690569     0.36600
N1103       N  0.80880430  0.00696212  0.32723504    -0.43700
N1104       N  0.00725297  0.01304876  0.32849191    -0.43700
C1105       C  0.85274114  0.03488489  0.25519033    -0.00100
C1106       C  0.87198259  0.06421607  0.25653135    -0.12000
C1107       C  0.85839775  0.09553581  0.25160773     0.02100
C1108       C  0.82420222  0.09903427  0.24508530    -0.00200
C1109       C  0.80403027  0.07078077  0.24623074    -0.11900
C1110       C  0.81761626  0.03895433  0.25187909     0.02000
H1111       H  0.89880243  0.06241975  0.25914251     0.15000
H1112       H  0.77738920  0.07362669  0.24278289     0.15000
C1113       C  0.79431202  0.01221666  0.25483136     0.36700
C1114       C  0.88104666  0.12313744  0.25062741     0.36600
N1115       N  0.77483211  0.99143347  0.25749600    -0.43700
N1116       N  0.89932330  0.14508835  0.24984313    -0.43700
C1117       C  0.90070516  0.23460445  0.32699244    -0.00100
C1118       C  0.92912594  0.23591707  0.30619497    -0.12000
C1119       C  0.96126217  0.24139739  0.31908331     0.02100
C1120       C  0.96547952  0.24577117  0.35408655    -0.00200
C1121       C  0.93647135  0.24175292  0.37444848    -0.11900
C1122       C  0.90491916  0.23667125  0.36155085     0.02000
H1123       H  0.92606479  0.23358102  0.27945919     0.15000
H1124       H  0.93822459  0.24433162  0.40125939     0.15000
C1125       C  0.87729284  0.23355394  0.38468393     0.36700
C1126       C  0.98810244  0.24204990  0.29509256     0.36600
N1127       N  0.85519251  0.23108957  0.40322019    -0.43700
N1128       N  0.00868410  0.24217715  0.27467776    -0.43700
C1129       C  0.53512591  0.25207636  0.14490157    -0.00100
C1130       C  0.54155925  0.24299449  0.17821892    -0.12000
C1131       C  0.57254440  0.24880226  0.19290829     0.02100
C1132       C  0.59863717  0.26215313  0.17371075    -0.00200
C1133       C  0.59392226  0.26851810  0.14018482    -0.11900
C1134       C  0.56318876  0.26363955  0.12554375     0.02000
H1135       H  0.52326948  0.23056016  0.19297112     0.15000
H1136       H  0.61454666  0.27784642  0.12529741     0.15000
C1137       C  0.56213703  0.27213326  0.09050278     0.36700
C1138       C  0.57750464  0.23950104  0.22731001     0.36600
N1139       N  0.56249039  0.27974980  0.06264810    -0.43700
N1140       N  0.58156613  0.23203122  0.25486403    -0.43700
C1141       C  0.99952576  0.27774994  0.89968320    -0.00100
C1142       C  0.02136172  0.30134200  0.88461184    -0.12000
C1143       C  0.02647636  0.33271390  0.89774622     0.02100
C1144       C  0.00846244  0.34294818  0.92579577    -0.00200
C1145       C  0.98547708  0.32141855  0.94042405    -0.11900
C1146       C  0.98027407  0.28952243  0.92747590     0.02000
H1147       H  0.03436478  0.29628755  0.86148428     0.15000
H1148       H  0.97091012  0.32992433  0.96167202     0.15000
C1149       C  0.95419073  0.27082670  0.94334716     0.36700
C1150       C  0.05029934  0.35423574  0.88164654     0.36600
N1151       N  0.93334138  0.25712961  0.95772266    -0.43700
N1152       N  0.06950215  0.37138080  0.86887110    -0.43700
C1153       C  0.99172508  0.14941750  0.93663110    -0.00100
C1154       C  0.98918215  0.15026626  0.90205861    -0.12000
C1155       C  0.98987016  0.17996639  0.88454655     0.02100
C1156       C  0.99412764  0.21083875  0.90157735    -0.00200
C1157       C  0.99916291  0.20930826  0.93642251    -0.11900
C1158       C  0.99729820  0.17912802  0.95398877     0.02000
H1159       H  0.98497103  0.12742998  0.88856864     0.15000
H1160       H  0.00481033  0.23140157  0.95023534     0.15000
C1161       C  0.00233098  0.17912385  0.98956130     0.36700
C1162       C  0.98270728  0.17752421  0.84936529     0.36600
N1163       N  0.00646250  0.17913725  0.01807892    -0.43700
N1164       N  0.97644138  0.17455864  0.82142642    -0.43700
C1165       C  0.02518004  0.23761720  0.85807556    -0.00100
C1166       C  0.02382795  0.23482895  0.82292084    -0.12000
C1167       C  0.05287384  0.22897481  0.80353883     0.02100
C1168       C  0.08426120  0.22663517  0.81910369    -0.00200
C1169       C  0.08569850  0.22901578  0.85365703    -0.11900
C1170       C  0.05740286  0.23444786  0.87300225     0.02000
H1171       H  0.00010792  0.23663594  0.81025558     0.15000
H1172       H  0.10974590  0.22719390  0.86595215     0.15000
C1173       C  0.06337923  0.23892631  0.90821135     0.36700
C1174       C  0.04989603  0.22635434  0.76783347     0.36600
N1175       N  0.06931670  0.24286213  0.93609823    -0.43700
N1176       N  0.04733546  0.22412429  0.73921146    -0.43700
C1177       C  0.24071894  0.35161820  0.95454189    -0.00100
C1178       C  0.21412226  0.32882612  0.95289291    -0.12000
C1179       C  0.20446787  0.31378512  0.92270586     0.02100
C1180       C  0.22089852  0.32182680  0.89241737    -0.00200
C1181       C  0.24675519  0.34451724  0.89364617    -0.11900
C1182       C  0.25624972  0.35984746  0.92302238     0.02000
H1183       H  0.20046657  0.32281467  0.97548718     0.15000
H1184       H  0.25974763  0.35122666  0.87077920     0.15000
C1185       C  0.28047115  0.38550519  0.91723858     0.36700
C1186       C  0.17728216  0.29073689  0.92370831     0.36600
N1187       N  0.29980995  0.40576562  0.91128011    -0.43700
N1188       N  0.15549183  0.27222970  0.92462424    -0.43700
C1189       C  0.25549362  0.17314133  0.58423767    -0.00100
C1190       C  0.22713302  0.17653685  0.56420744    -0.12000
C1191       C  0.22558037  0.16152665  0.53242976     0.02100
C1192       C  0.25280660  0.14186657  0.51999687    -0.00200
C1193       C  0.28178381  0.14088040  0.54060707    -0.11900
C1194       C  0.28314655  0.15590337  0.57174159     0.02000
H1195       H  0.20580041  0.19034490  0.57374942     0.15000
H1196       H  0.30339370  0.12589481  0.53493331     0.15000
C1197       C  0.31243174  0.15043946  0.59193205     0.36700
C1198       C  0.19465923  0.16476001  0.51453994     0.36600
N1199       N  0.33568416  0.14573118  0.60818407    -0.43700
N1200       N  0.16986565  0.16745331  0.50024634    -0.43700
C1201       C  0.49567255  0.28506713  0.59582841    -0.00100
C1202       C  0.52467289  0.28649555  0.57521924    -0.12000
C1203       C  0.53462679  0.31588153  0.55868793     0.02100
C1204       C  0.51526738  0.34509808  0.56188153    -0.00200
C1205       C  0.48542385  0.34329090  0.57982553    -0.11900
C1206       C  0.47589473  0.31511464  0.59736805     0.02000
H1207       H  0.54087499  0.26491871  0.57357543     0.15000
H1208       H  0.46955458  0.36520277  0.58159658     0.15000
C1209       C  0.44724433  0.32138506  0.61864646     0.36700
C1210       C  0.56554390  0.31569441  0.54010775     0.36600
N1211       N  0.42443708  0.32823707  0.63521726    -0.43700
N1212       N  0.59036164  0.31553166  0.52520162    -0.43700
C1213       C  0.48999044  0.21898686  0.60392821    -0.00100
C1214       C  0.49084027  0.21342549  0.56910392    -0.12000
C1215       C  0.48857812  0.18116352  0.55591703     0.02100
C1216       C  0.48727967  0.15356576  0.57752632    -0.00200
C1217       C  0.48643432  0.15863564  0.61172726    -0.11900
C1218       C  0.48711578  0.19033987  0.62508492     0.02000
H1219       H  0.49230192  0.23407978  0.55197151     0.15000
H1220       H  0.48563089  0.13735511  0.62833099     0.15000
C1221       C  0.48730137  0.19188769  0.66111042     0.36700
C1222       C  0.48785431  0.17689331  0.52022441     0.36600
N1223       N  0.48781100  0.19219137  0.68995908    -0.43700
N1224       N  0.48688476  0.17347021  0.49161182    -0.43700
C1225       C  0.45646901  0.25594724  0.63751663    -0.00100
C1226       C  0.45220948  0.25929074  0.67232144    -0.12000
C1227       C  0.42028551  0.26195266  0.68703092     0.02100
C1228       C  0.39139154  0.26025913  0.66710683    -0.00200
C1229       C  0.39527689  0.25460039  0.63303746    -0.11900
C1230       C  0.42671735  0.25289552  0.61808095     0.02000
H1231       H  0.47363148  0.25957552  0.68839171     0.15000
H1232       H  0.37338286  0.25320701  0.61744643     0.15000
C1233       C  0.42678954  0.25159508  0.58204675     0.36700
C1234       C  0.41802761  0.26537263  0.72279350     0.36600
N1235       N  0.42568137  0.25099799  0.55322312    -0.43700
N1236       N  0.41630152  0.26805979  0.75147891    -0.43700
C1237       C  0.25643584  0.84897547  0.97211496    -0.00100
C1238       C  0.25439631  0.81420243  0.96931481    -0.12000
C1239       C  0.25772243  0.79841300  0.93829787     0.02100
C1240       C  0.26120247  0.81748341  0.90895466    -0.00200
C1241       C  0.26071293  0.85182457  0.91107755    -0.11900
C1242       C  0.25898301  0.86766293  0.94167829     0.02000
H1243       H  0.25011664  0.79898314  0.99101733     0.15000
H1244       H  0.26347238  0.86657331  0.88855193     0.15000
C1245       C  0.26320258  0.90316683  0.94046280     0.36700
C1246       C  0.25697521  0.76270228  0.93728064     0.36600
N1247       N  0.26715890  0.93144782  0.93844567    -0.43700
N1248       N  0.25656178  0.73406865  0.93655616    -0.43700
C1249       C  0.28892394  0.88727216  0.01014786    -0.00100
C1250       C  0.29126317  0.91113474  0.03586289    -0.12000
C1251       C  0.32135786  0.92744367  0.04312379     0.02100
C1252       C  0.35061541  0.92059114  0.02430575    -0.00200
C1253       C  0.34873372  0.89680748  0.99926992    -0.11900
C1254       C  0.31969854  0.87950157  0.99277061     0.02000
H1255       H  0.26950017  0.91662442  0.05109433     0.15000
H1256       H  0.37090184  0.89067340  0.98474819     0.15000
C1257       C  0.32512538  0.85284369  0.96924057     0.36700
C1258       C  0.32162920  0.94992196  0.07095878     0.36600
N1259       N  0.33109134  0.83193096  0.95034156    -0.43700
N1260       N  0.32182030  0.96775080  0.09347605    -0.43700
C1261       C  0.15915032  0.92064754  0.99237016    -0.00100
C1262       C  0.16083236  0.88635028  0.99497718    -0.12000
C1263       C  0.19098841  0.86974852  0.99923312     0.02100
C1264       C  0.22174439  0.88746836  0.00149375    -0.00200
C1265       C  0.21970988  0.92236022  0.99949452    -0.11900
C1266       C  0.18900448  0.93885897  0.99433099     0.02000
H1267       H  0.13809671  0.87212361  0.99361110     0.15000
H1268       H  0.24199087  0.93698981  0.00108820     0.15000
C1269       C  0.18884857  0.97450415  0.99183236     0.36700
C1270       C  0.18852196  0.83421275  0.00289745     0.36600
N1271       N  0.18886704  0.00308250  0.98968271    -0.43700
N1272       N  0.18539235  0.80592607  0.00613395    -0.43700
C1273       C  0.24032727  0.81524028  0.10222834    -0.00100
C1274       C  0.26440036  0.80314144  0.07976506    -0.12000
C1275       C  0.27103005  0.81948485  0.04936846     0.02100
C1276       C  0.25140610  0.84751576  0.03962496    -0.00200
C1277       C  0.22952372  0.86066014  0.06471548    -0.11900
C1278       C  0.22343651  0.84466629  0.09486472     0.02000
H1279       H  0.27912461  0.78155053  0.08670774     0.15000
H1280       H  0.21692592  0.88424141  0.06150495     0.15000
C1281       C  0.20001723  0.85939635  0.11824469     0.36700
C1282       C  0.29923570  0.80723190  0.03048475     0.36600
N1283       N  0.18127649  0.87121015  0.13692994    -0.43700
N1284       N  0.32200204  0.79582418  0.01664767    -0.43700
C1285       C  0.32178852  0.89619624  0.24157769    -0.00100
C1286       C  0.31862994  0.91991466  0.21620279    -0.12000
C1287       C  0.33253861  0.95150156  0.21946230     0.02100
C1288       C  0.35156514  0.95937331  0.24828870    -0.00200
C1289       C  0.34751388  0.93796355  0.27601649    -0.11900
C1290       C  0.33378478  0.90647918  0.27269165     0.02000
H1291       H  0.30700998  0.91317418  0.19290918     0.15000
H1292       H  0.35583223  0.94500199  0.30049172     0.15000
C1293       C  0.33119635  0.88568181  0.30194467     0.36700
C1294       C  0.32937234  0.97338327  0.19115193     0.36600
N1295       N  0.32868521  0.86911519  0.32540427    -0.43700
N1296       N  0.32624917  0.99004609  0.16784385    -0.43700
C1297       C  0.15279670  0.52598534  0.25134730    -0.00100
C1298       C  0.15240399  0.55383714  0.22951751    -0.12000
C1299       C  0.17035013  0.58242622  0.23522884     0.02100
C1300       C  0.18776031  0.58642648  0.26521316    -0.00200
C1301       C  0.19032190  0.55897591  0.28675144    -0.11900
C1302       C  0.17371785  0.52895062  0.27993550     0.02000
H1303       H  0.13664209  0.55538828  0.20803731     0.15000
H1304       H  0.20453798  0.56122615  0.30947616     0.15000
C1305       C  0.17762117  0.50238142  0.30377744     0.36700
C1306       C  0.17007053  0.60742884  0.20921899     0.36600
N1307       N  0.18116407  0.48121690  0.32298136    -0.43700
N1308       N  0.16990149  0.62727205  0.18833636    -0.43700
C1309       C  0.04415259  0.73269023  0.14589693    -0.00100
C1310       C  0.04485161  0.72761362  0.18076729    -0.12000
C1311       C  0.07499768  0.72093720  0.19754220     0.02100
C1312       C  0.10542255  0.71901158  0.17949720    -0.00200
C1313       C  0.10463649  0.72188761  0.14491016    -0.11900
C1314       C  0.07514475  0.72851572  0.12812118     0.02000
H1315       H  0.02214517  0.72898066  0.19525269     0.15000
H1316       H  0.12772015  0.71994187  0.13069535     0.15000
C1317       C  0.07875853  0.73371399  0.09256767     0.36700
C1318       C  0.07413372  0.71780885  0.23337571     0.36600
N1319       N  0.08275649  0.73816725  0.06429466    -0.43700
N1320       N  0.07338167  0.71530133  0.26212303    -0.43700
C1321       C  0.00836250  0.70892770  0.10558216    -0.00100
C1322       C  0.01034205  0.70691149  0.07035813    -0.12000
C1323       C  0.00164264  0.67773662  0.05338683     0.02100
C1324       C  0.99155471  0.64953188  0.07152160    -0.00200
C1325       C  0.99098697  0.65074981  0.10612449    -0.11900
C1326       C  0.99878438  0.67942402  0.12316376     0.02000
H1327       H  0.01825241  0.72791016  0.05573248     0.15000
H1328       H  0.98340279  0.62901502  0.12017479     0.15000
C1329       C  0.99324506  0.67785591  0.15882164     0.36700
C1330       C  0.00426309  0.67697237  0.01750205     0.36600
N1331       N  0.98782246  0.67550026  0.18712412    -0.43700
N1332       N  0.00639392  0.67631125  0.98871713    -0.43700
C1333       C  0.02112074  0.84040567  0.07794378    -0.00100
C1334       C  0.04101455  0.83247287  0.10480410    -0.12000
C1335       C  0.04001712  0.80133308  0.11977358     0.02100
C1336       C  0.01864497  0.77571493  0.10709778    -0.00200
C1337       C  0.99836997  0.78484749  0.07968857    -0.11900
C1338       C  0.99985345  0.81641826  0.06490225     0.02000
H1339       H  0.05719960  0.85138778  0.11472798     0.15000
H1340       H  0.98041666  0.76772487  0.07004073     0.15000
C1341       C  0.97870108  0.82397274  0.03692103     0.36700
C1342       C  0.06099704  0.79890271  0.14877650     0.36600
N1343       N  0.96179325  0.83001383  0.01444622    -0.43700
N1344       N  0.07849098  0.79844272  0.17156589    -0.43700
C1345       C  0.24724659  0.64634133  0.53725097    -0.00100
C1346       C  0.21849854  0.64296066  0.55822772    -0.12000
C1347       C  0.21471444  0.65902806  0.58857025     0.02100
C1348       C  0.24094777  0.67715387  0.60132749    -0.00200
C1349       C  0.27079786  0.67918303  0.58302544    -0.11900
C1350       C  0.27427777  0.66412416  0.55142717     0.02000
H1351       H  0.19844614  0.62651252  0.55251857     0.15000
H1352       H  0.29154813  0.69241948  0.59356463     0.15000
C1353       C  0.30639490  0.66667288  0.53517187     0.36700
C1354       C  0.18399405  0.65485229  0.60723189     0.36600
N1355       N  0.33234405  0.66913576  0.52265940    -0.43700
N1356       N  0.15943585  0.65161540  0.62215427    -0.43700
C1357       C  0.34565973  0.57070928  0.51466507    -0.00100
C1358       C  0.31957521  0.56564329  0.53778235    -0.12000
C1359       C  0.28803738  0.58112722  0.53383821     0.02100
C1360       C  0.28199771  0.60303613  0.50650027    -0.00200
C1361       C  0.30902533  0.60675859  0.48349072    -0.11900
C1362       C  0.33909464  0.58999513  0.48626205     0.02000
H1363       H  0.32403158  0.55019032  0.55946995     0.15000
H1364       H  0.30870609  0.62439129  0.46334101     0.15000
C1365       C  0.36267638  0.59348151  0.45889162     0.36700
C1366       C  0.26309945  0.57496319  0.55915434     0.36600
N1367       N  0.38120859  0.59630817  0.43681137    -0.43700
N1368       N  0.24328989  0.56961907  0.57955125    -0.43700
C1369       C  0.15423796  0.57672934  0.48610537    -0.00100
C1370       C  0.15624554  0.61107239  0.48664285    -0.12000
C1371       C  0.18632229  0.62672708  0.49199554     0.02100
C1372       C  0.21617248  0.60785174  0.49814109    -0.00200
C1373       C  0.21400357  0.57302385  0.49645469    -0.11900
C1374       C  0.18343094  0.55748494  0.49074424     0.02000
H1375       H  0.13389969  0.62596509  0.48290240     0.15000
H1376       H  0.23601434  0.55764962  0.49910143     0.15000
C1377       C  0.18249175  0.52177636  0.49110342     0.36700
C1378       C  0.18484025  0.66253036  0.49313006     0.36600
N1379       N  0.18177419  0.49314454  0.49153511    -0.43700
N1380       N  0.18260536  0.69108471  0.49450271    -0.43700
C1381       C  0.27253444  0.66817568  0.40489441    -0.00100
C1382       C  0.27149506  0.68998250  0.43224039    -0.12000
C1383       C  0.26140077  0.67931502  0.46429416     0.02100
C1384       C  0.25331079  0.64547355  0.46962189    -0.00200
C1385       C  0.25186166  0.62499416  0.44079541    -0.11900
C1386       C  0.26188094  0.63551137  0.40948228     0.02000
H1387       H  0.27780801  0.71575691  0.42834987     0.15000
H1388       H  0.24617902  0.59894606  0.44330235     0.15000
C1389       C  0.26299765  0.61113581  0.38309493     0.36700
C1390       C  0.25826936  0.70433359  0.48967427     0.36600
N1391       N  0.26386525  0.59151558  0.36212294    -0.43700
N1392       N  0.25563502  0.72522387  0.50925834    -0.43700
C1393       C  0.58206533  0.48996726  0.14236089    -0.00100
C1394       C  0.57078668  0.47079375  0.16966099    -0.12000
C1395       C  0.58331105  0.47534706  0.20245475     0.02100
C1396       C  0.60704634  0.50049237  0.20927115    -0.00200
C1397       C  0.61756219  0.51930422  0.18107663    -0.11900
C1398       C  0.60640073  0.51405081  0.14884454     0.02000
H1399       H  0.55232232  0.45193493  0.16540480     0.15000
H1400       H  0.63740209  0.53701373  0.18264096     0.15000
C1401       C  0.62276032  0.53296659  0.12275132     0.36700
C1402       C  0.57193438  0.45305681  0.22819125     0.36600
N1403       N  0.63611420  0.54814260  0.10217646    -0.43700
N1404       N  0.56251906  0.43518655  0.24873354    -0.43700
C1405       C  0.60624739  0.51130175  0.27617912    -0.00100
C1406       C  0.57114794  0.51458166  0.27722670    -0.12000
C1407       C  0.55390080  0.52015614  0.30767718     0.02100
C1408       C  0.57173912  0.52361032  0.33771134    -0.00200
C1409       C  0.60631318  0.52293875  0.33640857    -0.11900
C1410       C  0.62355181  0.51699420  0.30687349     0.02000
H1411       H  0.55697247  0.51271050  0.25454757     0.15000
H1412       H  0.62026666  0.52621099  0.35922644     0.15000
C1413       C  0.65930836  0.51453265  0.31037104     0.36700
C1414       C  0.51798941  0.52070054  0.30768412     0.36600
N1415       N  0.68763983  0.51248836  0.31511938    -0.43700
N1416       N  0.48916906  0.52102906  0.30776593    -0.43700
C1417       C  0.64593056  0.46966748  0.24821369    -0.00100
C1418       C  0.63831695  0.44925996  0.27645433    -0.12000
C1419       C  0.65274552  0.41820693  0.28172064     0.02100
C1420       C  0.67351952  0.40428186  0.25740017    -0.00200
C1421       C  0.68009423  0.42230123  0.22819270    -0.11900
C1422       C  0.66681187  0.45447516  0.22333400     0.02000
H1423       H  0.61989389  0.45619146  0.29491149     0.15000
H1424       H  0.69589562  0.41120783  0.20909271     0.15000
C1425       C  0.67525448  0.47045915  0.19220535     0.36700
C1426       C  0.64468731  0.40042063  0.31206005     0.36600
N1427       N  0.68300584  0.48256661  0.16715710    -0.43700
N1428       N  0.63836837  0.38628533  0.33640889    -0.43700
C1429       C  0.76051754  0.32882357  0.40215456    -0.00100
C1430       C  0.73281671  0.32242423  0.42259982    -0.12000
C1431       C  0.72956309  0.33643991  0.45476292     0.02100
C1432       C  0.75484883  0.35746852  0.46771976    -0.00200
C1433       C  0.78165411  0.36444844  0.44500487    -0.11900
C1434       C  0.78515894  0.34969070  0.41381912     0.02000
H1435       H  0.71342475  0.30653234  0.41324859     0.15000
H1436       H  0.80015711  0.38284511  0.45002251     0.15000
C1437       C  0.81399448  0.35747378  0.39347105     0.36700
C1438       C  0.69908356  0.32930959  0.47251178     0.36600
N1439       N  0.83708477  0.36354435  0.37718694    -0.43700
N1440       N  0.67426449  0.32232571  0.48548011    -0.43700
C1441       C  0.71809346  0.40000674  0.49546919    -0.00100
C1442       C  0.71601608  0.42100530  0.46701723    -0.12000
C1443       C  0.68563558  0.43600637  0.45685455     0.02100
C1444       C  0.65622499  0.43127609  0.47584828    -0.00200
C1445       C  0.65851296  0.41276696  0.50501658    -0.11900
C1446       C  0.68730139  0.39586561  0.51403031     0.02000
H1447       H  0.73798404  0.42426863  0.45150332     0.15000
H1448       H  0.63640050  0.40963161  0.52049994     0.15000
C1449       C  0.68043796  0.37186036  0.54001448     0.36700
C1450       C  0.68513675  0.45466372  0.42614246     0.36600
N1451       N  0.67258358  0.35311577  0.56044038    -0.43700
N1452       N  0.68474795  0.46950317  0.40141369    -0.43700
C1453       C  0.78449331  0.39821606  0.50563353    -0.00100
C1454       C  0.78607864  0.43316693  0.50655434    -0.12000
C1455       C  0.81657386  0.44953817  0.51164414     0.02100
C1456       C  0.84652690  0.43111405  0.51555176    -0.00200
C1457       C  0.84503759  0.39673512  0.51537632    -0.11900
C1458       C  0.81510606  0.38029871  0.51110678     0.02000
H1459       H  0.76363022  0.44793425  0.50395065     0.15000
H1460       H  0.86777422  0.38231928  0.51864034     0.15000
C1461       C  0.81785501  0.34460775  0.51017630     0.36700
C1462       C  0.81654713  0.48525195  0.51189302     0.36600
N1463       N  0.82191735  0.31622652  0.50901905    -0.43700
N1464       N  0.81651950  0.51390143  0.51215706    -0.43700
C1465       C  0.34816903  0.52605867  0.73399807    -0.00100
C1466       C  0.32717930  0.53745072  0.76037751    -0.12000
C1467       C  0.31435812  0.56989962  0.76149661     0.02100
C1468       C  0.32209427  0.59223428  0.73583414    -0.00200
C1469       C  0.34198438  0.58192688  0.70942412    -0.11900
C1470       C  0.35621539  0.55029893  0.70858206     0.02000
H1471       H  0.32106964  0.52095281  0.78079930     0.15000
H1472       H  0.34798335  0.59973429  0.68994469     0.15000
C1473       C  0.38132516  0.54714105  0.68274319     0.36700
C1474       C  0.29308754  0.57967987  0.78904238     0.36600
N1475       N  0.40126876  0.54661466  0.66170977    -0.43700
N1476       N  0.27597568  0.58755240  0.81106942    -0.43700
C1477       C  0.31236438  0.39694664  0.75420343    -0.00100
C1478       C  0.29312467  0.42581216  0.74932234    -0.12000
C1479       C  0.30796267  0.45671347  0.74259739     0.02100
C1480       C  0.34344128  0.45931873  0.74146142    -0.00200
C1481       C  0.36199069  0.42950945  0.74615176    -0.11900
C1482       C  0.34722073  0.39917760  0.75245219     0.02000
H1483       H  0.26618744  0.42401956  0.74985193     0.15000
H1484       H  0.38897846  0.43022080  0.74627495     0.15000
C1485       C  0.36890439  0.37095991  0.75833118     0.36700
C1486       C  0.28540203  0.48390687  0.73613595     0.36600
N1487       N  0.38641036  0.34849181  0.76297304    -0.43700
N1488       N  0.26636829  0.50494436  0.73073035    -0.43700
C1489       C  0.38429129  0.49434937  0.77312586    -0.00100
C1490       C  0.36962646  0.47924765  0.80181570    -0.12000
C1491       C  0.38193405  0.48261699  0.83383556     0.02100
C1492       C  0.41019667  0.50187428  0.83961006    -0.00200
C1493       C  0.42383388  0.51953016  0.81249434    -0.11900
C1494       C  0.41072475  0.51673985  0.77987245     0.02000
H1495       H  0.34668354  0.46564365  0.80039062     0.15000
H1496       H  0.44479094  0.53562466  0.81675442     0.15000
C1497       C  0.42429929  0.53836136  0.75464644     0.36700
C1498       C  0.36341131  0.46717659  0.86070737     0.36600
N1499       N  0.43585590  0.55604734  0.73507475    -0.43700
N1500       N  0.34859787  0.45488554  0.88220408    -0.43700
C1501       C  0.42441903  0.47073878  0.64688997    -0.00100
C1502       C  0.38968710  0.47119025  0.64657018    -0.12000
C1503       C  0.37100589  0.47694570  0.67543989     0.02100
C1504       C  0.38700636  0.48238221  0.70676274    -0.00200
C1505       C  0.42192832  0.47737797  0.70752409    -0.11900
C1506       C  0.44066045  0.47244209  0.67793630     0.02000
H1507       H  0.37686140  0.46879754  0.62299010     0.15000
H1508       H  0.43496747  0.47780304  0.73094433     0.15000
C1509       C  0.47647238  0.47086668  0.68001396     0.36700
C1510       C  0.33554559  0.48065856  0.67055352     0.36600
N1511       N  0.50520797  0.46964555  0.68175840    -0.43700
N1512       N  0.30748594  0.48369981  0.66482324    -0.43700
C1513       C  0.75052608  0.14077008  0.03208314    -0.00100
C1514       C  0.77024600  0.13282364  0.06048095    -0.12000
C1515       C  0.76460149  0.14625300  0.09207213     0.02100
C1516       C  0.73842534  0.16923513  0.09741412    -0.00200
C1517       C  0.71868061  0.17802387  0.06981748    -0.11900
C1518       C  0.72397066  0.16392645  0.03791606     0.02000
H1519       H  0.78937594  0.11388723  0.05963851     0.15000
H1520       H  0.69831542  0.19557004  0.07327229     0.15000
C1521       C  0.70073217  0.17330570  0.01225358     0.36700
C1522       C  0.78620714  0.13481667  0.11852213     0.36600
N1523       N  0.68188356  0.18137756  0.99205629    -0.43700
N1524       N  0.80355635  0.12526536  0.13942664    -0.43700
C1525       C  0.72108924  0.10032425  0.99528495    -0.00100
C1526       C  0.69906956  0.10806262  0.96850354    -0.12000
C1527       C  0.66796235  0.09377485  0.96493076     0.02100
C1528       C  0.65645629  0.07134135  0.98871428    -0.00200
C1529       C  0.67614560  0.06447674  0.01664589    -0.11900
C1530       C  0.70766744  0.07906722  0.02057391     0.02000
H1531       H  0.70432024  0.12724093  0.95056360     0.15000
H1532       H  0.66656049  0.04805274  0.03582349     0.15000
C1533       C  0.72480638  0.07182228  0.05128372     0.36700
C1534       C  0.64726365  0.10463506  0.93760793     0.36600
N1535       N  0.73803660  0.06517666  0.07597616    -0.43700
N1536       N  0.63097219  0.11400260  0.91581673    -0.43700
C1537       C  0.78861095  0.09968407  0.00151072    -0.00100
C1538       C  0.81764910  0.11945226  0.00272961    -0.12000
C1539       C  0.84888118  0.10674390  0.01114729     0.02100
C1540       C  0.85266873  0.07294414  0.01924351    -0.00200
C1541       C  0.82486715  0.05234807  0.01592754    -0.11900
C1542       C  0.79347018  0.06489523  0.00601650     0.02000
H1543       H  0.81552668  0.14599146  0.99904175     0.15000
H1544       H  0.82801414  0.02591835  0.01986772     0.15000
C1545       C  0.76848019  0.04067026  0.99890596     0.36700
C1546       C  0.87627974  0.12964895  0.01217521     0.36600
N1547       N  0.74927161  0.02038885  0.99301358    -0.43700
N1548       N  0.89812504  0.14809473  0.01259709    -0.43700
C1549       C  0.14909633  0.96749440  0.75870648    -0.00100
C1550       C  0.14841448  0.94370901  0.73284624    -0.12000
C1551       C  0.16072198  0.91129211  0.73715193     0.02100
C1552       C  0.17771839  0.90230860  0.76663231    -0.00200
C1553       C  0.18476788  0.92764989  0.78924352    -0.11900
C1554       C  0.17169284  0.95992936  0.78521619     0.02000
H1555       H  0.13810902  0.94977343  0.70884060     0.15000
H1556       H  0.19985273  0.92205876  0.81088527     0.15000
C1557       C  0.18071624  0.98355618  0.81034430     0.36700
C1558       C  0.15567078  0.88803595  0.71040628     0.36600
N1559       N  0.18930234  0.00112756  0.83122624    -0.43700
N1560       N  0.15132924  0.86946281  0.68900166    -0.43700
C1561       C  0.14983459  0.02953636  0.75736464    -0.00100
C1562       C  0.17077631  0.03202320  0.72878665    -0.12000
C1563       C  0.18383326  0.06252883  0.71835425     0.02100
C1564       C  0.17706681  0.09130756  0.73734497    -0.00200
C1565       C  0.16311236  0.08722495  0.76928719    -0.11900
C1566       C  0.15048090  0.05676171  0.77995536     0.02000
H1567       H  0.17337393  0.01098829  0.71219404     0.15000
H1568       H  0.16135535  0.10829249  0.78596802     0.15000
C1569       C  0.14128366  0.05494803  0.81471496     0.36700
C1570       C  0.20129668  0.06372628  0.68676580     0.36600
N1571       N  0.13538837  0.05483370  0.84302102    -0.43700
N1572       N  0.21534995  0.06451509  0.66145555    -0.43700
C1573       C  0.10237862  0.00094841  0.72681486    -0.00100
C1574       C  0.08265069  0.97328438  0.71844192    -0.12000
C1575       C  0.07032895  0.96902130  0.68575996     0.02100
C1576       C  0.07513678  0.99408926  0.66147560    -0.00200
C1577       C  0.08840262  0.02403976  0.67207907    -0.11900
C1578       C  0.10032945  0.02836699  0.70409761     0.02000
H1579       H  0.08009595  0.95324823  0.73630394     0.15000
H1580       H  0.08875720  0.04517766  0.65529300     0.15000
C1581       C  0.10516980  0.06268080  0.71267566     0.36700
C1582       C  0.05434541  0.93829585  0.67771524     0.36600
N1583       N  0.10670997  0.09079083  0.71788826    -0.43700
N1584       N  0.04155822  0.91359098  0.67136987    -0.43700
C1585       C  0.10165212  0.99937291  0.79017523    -0.00100
C1586       C  0.10383014  0.97378860  0.81436963    -0.12000
C1587       C  0.09258288  0.97831488  0.84718453     0.02100
C1588       C  0.07536380  0.00768589  0.85599331    -0.00200
C1589       C  0.06555936  0.02900631  0.83020218    -0.11900
C1590       C  0.07748790  0.02468792  0.79749129     0.02000
H1591       H  0.11508840  0.95012094  0.80852185     0.15000
H1592       H  0.04905084  0.04978271  0.83565581     0.15000
C1593       C  0.06231912  0.04590115  0.77297927     0.36700
C1594       C  0.09872085  0.95197355  0.87089556     0.36600
N1595       N  0.04736426  0.06300054  0.75523728    -0.43700
N1596       N  0.10371209  0.93086956  0.88984906    -0.43700
C1597       C  0.47844764  0.75581433  0.35398821    -0.00100
C1598       C  0.45957270  0.78593947  0.35236920    -0.12000
C1599       C  0.42937110  0.78868534  0.33572361     0.02100
C1600       C  0.41462381  0.76044755  0.32257555    -0.00200
C1601       C  0.43294744  0.73068363  0.32213492    -0.11900
C1602       C  0.46502015  0.72848676  0.33611483     0.02000
H1603       H  0.46638054  0.80794873  0.36547232     0.15000
H1604       H  0.42220397  0.70906160  0.31063334     0.15000
C1605       C  0.48257130  0.69726762  0.33273096     0.36700
C1606       C  0.41329437  0.82085748  0.33410795     0.36600
N1607       N  0.49635005  0.67213623  0.32955858    -0.43700
N1608       N  0.40115949  0.84692264  0.33258038    -0.43700
C1609       C  0.50146702  0.71990606  0.40068871    -0.00100
C1610       C  0.52433108  0.69269102  0.40029240    -0.12000
C1611       C  0.51701276  0.66165294  0.41325003     0.02100
C1612       C  0.48533879  0.65529204  0.42690720    -0.00200
C1613       C  0.46233229  0.68173882  0.42906715    -0.11900
C1614       C  0.46980220  0.71347550  0.41600915     0.02000
H1615       H  0.54807438  0.69368583  0.38781834     0.15000
H1616       H  0.43794450  0.67733327  0.43991427     0.15000
C1617       C  0.44368040  0.73831825  0.41748998     0.36700
C1618       C  0.54311128  0.63661107  0.41149374     0.36600
N1619       N  0.42257844  0.75803623  0.41882020    -0.43700
N1620       N  0.56406745  0.61675850  0.40979344    -0.43700
C1621       C  0.51359625  0.78582362  0.39733680    -0.00100
C1622       C  0.52515308  0.81240621  0.37687336    -0.12000
C1623       C  0.52818966  0.84454710  0.38851134     0.02100
C1624       C  0.52057614  0.85157609  0.42175728    -0.00200
C1625       C  0.51171419  0.82572912  0.44341702    -0.11900
C1626       C  0.50864978  0.79294759  0.43187777     0.02000
H1627       H  0.52980836  0.80840044  0.35051407     0.15000
H1628       H  0.50653635  0.83134295  0.46940177     0.15000
C1629       C  0.50193600  0.76808932  0.45679492     0.36700
C1630       C  0.53800891  0.87028617  0.36541472     0.36600
N1631       N  0.49706176  0.74880824  0.47764255    -0.43700
N1632       N  0.54582422  0.89094381  0.34697900    -0.43700
C1633       C  0.77878116  0.60269670  0.99049605    -0.00100
C1634       C  0.80358261  0.61597718  0.96859428    -0.12000
C1635       C  0.83575974  0.60303050  0.96597132     0.02100
C1636       C  0.84489193  0.57558803  0.98507066    -0.00200
C1637       C  0.82165111  0.56194166  0.00730817    -0.11900
C1638       C  0.78936956  0.57563036  0.01104280     0.02000
H1639       H  0.79889825  0.63789485  0.95381040     0.15000
H1640       H  0.82911507  0.54092970  0.02253065     0.15000
C1641       C  0.76883760  0.56140602  0.03693412     0.36700
C1642       C  0.85930094  0.61889262  0.94376494     0.36600
N1643       N  0.75303243  0.54908540  0.05771999    -0.43700
N1644       N  0.87814549  0.63175165  0.92613081    -0.43700
C1645       C  0.71089594  0.60386222  0.99672850    -0.00100
C1646       C  0.70768417  0.56929556  0.99224151    -0.12000
C1647       C  0.67624443  0.55395656  0.99317037     0.02100
C1648       C  0.64703162  0.57322330  0.99758541    -0.00200
C1649       C  0.64973656  0.60713444  0.00207121    -0.11900
C1650       C  0.68063614  0.62242152  0.00234570     0.02000
H1651       H  0.72937740  0.55406371  0.98714569     0.15000
H1652       H  0.62725580  0.62190666  0.00586313     0.15000
C1653       C  0.67986000  0.65735699  0.01007099     0.36700
C1654       C  0.67446867  0.51859136  0.98870217     0.36600
N1655       N  0.67832684  0.68514197  0.01696552    -0.43700
N1656       N  0.67311695  0.49020255  0.98525659    -0.43700
C1657       C  0.76206694  0.66359363  0.09664015    -0.00100
C1658       C  0.77883311  0.67752791  0.06912785    -0.12000
C1659       C  0.77378367  0.66595699  0.03620416     0.02100
C1660       C  0.74981994  0.64087302  0.02962174    -0.00200
C1661       C  0.73432331  0.62677317  0.05826145    -0.11900
C1662       C  0.74061732  0.63691391  0.09066297     0.02000
H1663       H  0.79597043  0.69762167  0.07330228     0.15000
H1664       H  0.71785598  0.60594053  0.05621348     0.15000
C1665       C  0.72555361  0.61784473  0.11738792     0.36700
C1666       C  0.79430883  0.68030816  0.01041823     0.36600
N1667       N  0.71352339  0.60236534  0.13854557    -0.43700
N1668       N  0.81107523  0.69248864  0.99032407    -0.43700
C1669       C  0.83628276  0.89924878  0.25759964    -0.00100
C1670       C  0.82894266  0.92039855  0.23089271    -0.12000
C1671       C  0.83807384  0.95392067  0.23107392     0.02100
C1672       C  0.85539603  0.96760122  0.25881221    -0.00200
C1673       C  0.86242149  0.94499706  0.28543543    -0.11900
C1674       C  0.85279862  0.91192921  0.28518441     0.02000
H1675       H  0.81602229  0.91054088  0.20951335     0.15000
H1676       H  0.87753531  0.95159526  0.30638421     0.15000
C1677       C  0.86280702  0.89068712  0.31250086     0.36700
C1678       C  0.82971969  0.97263219  0.20155584     0.36600
N1679       N  0.87093032  0.87347050  0.33412925    -0.43700
N1680       N  0.82180646  0.98642327  0.17751680    -0.43700
C1681       C  0.60746272  0.74353150  0.33030341    -0.00100
C1682       C  0.60449019  0.74610542  0.36466535    -0.12000
C1683       C  0.57355135  0.74798412  0.38012260     0.02100
C1684       C  0.54350711  0.74723829  0.36094961    -0.00200
C1685       C  0.54701545  0.74510634  0.32585460    -0.11900
C1686       C  0.57865443  0.74292565  0.31057648     0.02000
H1687       H  0.62683946  0.74674114  0.37971412     0.15000
H1688       H  0.52542079  0.74603545  0.30999661     0.15000
C1689       C  0.58106095  0.74208619  0.27465316     0.36700
C1690       C  0.57412751  0.74949416  0.41614790     0.36600
N1691       N  0.58301783  0.74158567  0.24585023    -0.43700
N1692       N  0.57590624  0.75041983  0.44491096    -0.43700
C1693       C  0.67361951  0.60244161  0.23818105    -0.00100
C1694       C  0.69488566  0.57458062  0.23849782    -0.12000
C1695       C  0.68218442  0.54211480  0.24034622     0.02100
C1696       C  0.64702642  0.53719443  0.24089024    -0.00200
C1697       C  0.62650529  0.56617655  0.23905075    -0.11900
C1698       C  0.63919215  0.59794546  0.23848805     0.02000
H1699       H  0.72159830  0.57829762  0.23860728     0.15000
H1700       H  0.59964829  0.56383199  0.23822755     0.15000
C1701       C  0.61611443  0.62570348  0.23813470     0.36700
C1702       C  0.70634910  0.51567734  0.24323245     0.36600
N1703       N  0.59767221  0.64792869  0.23804507    -0.43700
N1704       N  0.72667665  0.49531581  0.24594750    -0.43700
C1705       C  0.90833920  0.75630947  0.16361916    -0.00100
C1706       C  0.93458322  0.77034240  0.18166284    -0.12000
C1707       C  0.96822416  0.76700426  0.17094127     0.02100
C1708       C  0.97645398  0.74780125  0.14214701    -0.00200
C1709       C  0.94866182  0.73776677  0.12276810    -0.11900
C1710       C  0.91589239  0.74068646  0.13332546     0.02000
H1711       H  0.92884045  0.78375333  0.20442234     0.15000
H1712       H  0.95190416  0.72709439  0.09827104     0.15000
C1713       C  0.89051894  0.72762743  0.11168370     0.36700
C1714       C  0.99251544  0.78487380  0.18968067     0.36600
N1715       N  0.87045628  0.71681159  0.09440903    -0.43700
N1716       N  0.01080760  0.79957458  0.20595027    -0.43700
C1717       C  0.78652775  0.90231575  0.49190896    -0.00100
C1718       C  0.80519193  0.90143131  0.46169568    -0.12000
C1719       C  0.83760924  0.91373312  0.45982330     0.02100
C1720       C  0.85110753  0.92949556  0.48763541    -0.00200
C1721       C  0.83002949  0.93766700  0.51440347    -0.11900
C1722       C  0.79761009  0.92525245  0.51640531     0.02000
H1723       H  0.79557400  0.88990251  0.43962616     0.15000
H1724       H  0.83963540  0.95218117  0.53483931     0.15000
C1725       C  0.77864506  0.93375530  0.54596134     0.36700
C1726       C  0.85725578  0.90771592  0.43009749     0.36600
N1727       N  0.76451593  0.94135073  0.57008523    -0.43700
N1728       N  0.87313870  0.90290983  0.40635360    -0.43700
C1729       C  0.72500595  0.90139922  0.50359239    -0.00100
C1730       C  0.70809169  0.90390296  0.53482823    -0.12000
C1731       C  0.67568902  0.91666933  0.53775953     0.02100
C1732       C  0.65953325  0.92902089  0.50937986    -0.00200
C1733       C  0.67814511  0.93257059  0.47977739    -0.11900
C1734       C  0.71103466  0.92051882  0.47715239     0.02000
H1735       H  0.71960433  0.89546086  0.55754235     0.15000
H1736       H  0.66671217  0.94436030  0.45833561     0.15000
C1737       C  0.72852271  0.92614421  0.44606144     0.36700
C1738       C  0.65910324  0.91491293  0.56983501     0.36600
N1739       N  0.74202185  0.93091093  0.42091069    -0.43700
N1740       N  0.64592473  0.91345945  0.59557660    -0.43700
C1741       C  0.75150797  0.85339229  0.46841137    -0.00100
C1742       C  0.72063916  0.85134532  0.45153267    -0.12000
C1743       C  0.71862894  0.83915752  0.41872379     0.02100
C1744       C  0.74751114  0.82686646  0.40246909    -0.00200
C1745       C  0.77609595  0.82206307  0.42169770    -0.11900
C1746       C  0.77762991  0.83312570  0.45484610     0.02000
H1747       H  0.69795886  0.86058619  0.46305860     0.15000
H1748       H  0.79756855  0.80958086  0.41067305     0.15000
C1749       C  0.80740513  0.82441428  0.47268607     0.36700
C1750       C  0.68700057  0.84112314  0.40196152     0.36600
N1751       N  0.83179359  0.81546288  0.48509876    -0.43700
N1752       N  0.66157214  0.84260676  0.38865432    -0.43700
C1753       C  0.88940349  0.51717936  0.71857620    -0.00100
C1754       C  0.87256647  0.50885649  0.68865141    -0.12000
C1755       C  0.88615368  0.51321503  0.65685880     0.02100
C1756       C  0.91839633  0.52607813  0.65293636    -0.00200
C1757       C  0.93481907  0.53671986  0.68187675    -0.11900
C1758       C  0.92039608  0.53357776  0.71408231     0.02000
H1759       H  0.84756299  0.49914632  0.68960295     0.15000
H1760       H  0.95911928  0.54795601  0.67938728     0.15000
C1761       C  0.93836722  0.54827334  0.74106092     0.36700
C1762       C  0.86523303  0.50544152  0.62882416     0.36600
N1763       N  0.95428145  0.56012298  0.76165600    -0.43700
N1764       N  0.84821290  0.49939987  0.60656492    -0.43700
C1765       C  0.88714913  0.50243886  0.78550022    -0.00100
C1766       C  0.92032032  0.49042024  0.78628591    -0.12000
C1767       C  0.93551053  0.48089685  0.81646258     0.02100
C1768       C  0.91727494  0.48220932  0.84683515    -0.00200
C1769       C  0.88374320  0.49120040  0.84585099    -0.11900
C1770       C  0.86852555  0.50075599  0.81624335     0.02000
H1771       H  0.93453071  0.48792897  0.76340553     0.15000
H1772       H  0.86925534  0.49161795  0.86885023     0.15000
C1773       C  0.83431673  0.51169782  0.81990201     0.36700
C1774       C  0.97010911  0.47090855  0.81553886     0.36600
N1775       N  0.80740295  0.52105369  0.82496130    -0.43700
N1776       N  0.99786256  0.46289284  0.81475993    -0.43700
C1777       C  0.82293799  0.41444183  0.74404492    -0.00100
C1778       C  0.80157554  0.44166901  0.74988715    -0.12000
C1779       C  0.81385636  0.47436400  0.75122774     0.02100
C1780       C  0.84877335  0.47996223  0.74764641    -0.00200
C1781       C  0.86895478  0.45179699  0.73956325    -0.11900
C1782       C  0.85656215  0.41997805  0.73753036     0.02000
H1783       H  0.77526379  0.43727145  0.75406544     0.15000
H1784       H  0.89537766  0.45465036  0.73492548     0.15000
C1785       C  0.87897845  0.39324256  0.72822943     0.36700
C1786       C  0.78953957  0.50031717  0.75650092     0.36600
N1787       N  0.89678236  0.37187977  0.72036813    -0.43700
N1788       N  0.76904643  0.52032460  0.76061838    -0.43700
C1789       C  0.58883836  0.25853339  0.67297606    -0.00100
C1790       C  0.56471712  0.28345277  0.67833293    -0.12000
C1791       C  0.53284057  0.28212090  0.66358580     0.02100
C1792       C  0.52409315  0.25520223  0.64237564    -0.00200
C1793       C  0.54997275  0.23119967  0.63664692    -0.11900
C1794       C  0.58089810  0.23208444  0.65217555     0.02000
H1795       H  0.57094959  0.30433516  0.69393757     0.15000
H1796       H  0.54754536  0.21176042  0.61845932     0.15000
C1797       C  0.60515857  0.20651044  0.64413606     0.36700
C1798       C  0.51075160  0.30977267  0.67008020     0.36600
N1799       N  0.62453697  0.18605604  0.63762906    -0.43700
N1800       N  0.49381989  0.33229447  0.67644064    -0.43700
C1801       C  0.73739624  0.34237108  0.60394824    -0.00100
C1802       C  0.74049131  0.31855942  0.57848767    -0.12000
C1803       C  0.74619984  0.32788971  0.54485652     0.02100
C1804       C  0.74830091  0.36210025  0.53624986    -0.00200
C1805       C  0.74672716  0.38519172  0.56308752    -0.11900
C1806       C  0.74118025  0.37583369  0.59594234     0.02000
H1807       H  0.73906658  0.29253692  0.58502927     0.15000
H1808       H  0.74778470  0.41152278  0.55797456     0.15000
C1809       C  0.73793667  0.40145245  0.62093041     0.36700
C1810       C  0.75017353  0.30157911  0.52096113     0.36600
N1811       N  0.73521411  0.42194044  0.64091088    -0.43700
N1812       N  0.75361413  0.27977348  0.50252920    -0.43700
C1813       C  0.89460604  0.26560407  0.83691042    -0.00100
C1814       C  0.89808034  0.24172433  0.86186353    -0.12000
C1815       C  0.92860920  0.23320421  0.87560502     0.02100
C1816       C  0.95884191  0.24869825  0.86418931    -0.00200
C1817       C  0.95480959  0.27404576  0.83981756    -0.11900
C1818       C  0.92340843  0.28236612  0.82613086     0.02000
H1819       H  0.87604258  0.22943319  0.87145752     0.15000
H1820       H  0.97632719  0.28783057  0.83163414     0.15000
C1821       C  0.92162740  0.30799680  0.80112349     0.36700
C1822       C  0.92536137  0.20939863  0.90244574     0.36600
N1823       N  0.92030475  0.32869737  0.78116646    -0.43700
N1824       N  0.92100314  0.19033381  0.92362279    -0.43700
C1825       C  0.75982014  0.17591931  0.90380398    -0.00100
C1826       C  0.76264899  0.14156033  0.90420802    -0.12000
C1827       C  0.76428835  0.12387995  0.93415888     0.02100
C1828       C  0.76065856  0.14047781  0.96562170    -0.00200
C1829       C  0.76180019  0.17549415  0.96483353    -0.11900
C1830       C  0.76132058  0.19313365  0.93432106     0.02000
H1831       H  0.76292349  0.12826527  0.88071079     0.15000
H1832       H  0.76244028  0.18934559  0.98783901     0.15000
C1833       C  0.76150701  0.22882795  0.93489945     0.36700
C1834       C  0.76595057  0.08829902  0.93093241     0.36600
N1835       N  0.76187877  0.25746678  0.93531796    -0.43700
N1836       N  0.76706892  0.05998489  0.92669857    -0.43700
C1837       C  0.60045160  0.00825597  0.78563769    -0.00100
C1838       C  0.59809858  0.03113210  0.81252285    -0.12000
C1839       C  0.58412342  0.02310528  0.84341255     0.02100
C1840       C  0.57271066  0.99088327  0.84985076    -0.00200
C1841       C  0.57195628  0.96846048  0.82317242    -0.11900
C1842       C  0.58515942  0.97675418  0.79145368     0.02000
H1843       H  0.60845059  0.05556533  0.81112136     0.15000
H1844       H  0.56210490  0.94389851  0.82737581     0.15000
C1845       C  0.58477627  0.95136464  0.76612267     0.36700
C1846       C  0.58134677  0.04912821  0.86803460     0.36600
N1847       N  0.58441674  0.93098058  0.74591657    -0.43700
N1848       N  0.57875529  0.06994574  0.88766786    -0.43700
C1849       C  0.60655865  0.01656055  0.71944558    -0.00100
C1850       C  0.62518154  0.02969677  0.69229254    -0.12000
C1851       C  0.61441045  0.02884323  0.65939536     0.02100
C1852       C  0.58276650  0.01694819  0.65234068    -0.00200
C1853       C  0.56143513  0.00893419  0.67896933    -0.11900
C1854       C  0.57232671  0.01022111  0.71234853     0.02000
H1855       H  0.64846517  0.04192377  0.69681855     0.15000
H1856       H  0.53580741  0.00271389  0.67370126     0.15000
C1857       C  0.54639707  0.01002288  0.73743407     0.36700
C1858       C  0.63615716  0.04105882  0.63332746     0.36600
N1859       N  0.52493522  0.01038092  0.75691200    -0.43700
N1860       N  0.65362394  0.05089577  0.61252700    -0.43700
C1861       C  0.63911423  0.05081776  0.75885611    -0.00100
C1862       C  0.61635609  0.07747134  0.75351344    -0.12000
C1863       C  0.62539571  0.11043986  0.75660500     0.02100
C1864       C  0.65794448  0.11830669  0.76593347    -0.00200
C1865       C  0.68082420  0.09259781  0.77221118    -0.11900
C1866       C  0.67210624  0.05916219  0.76849209     0.02000
H1867       H  0.59069045  0.07233630  0.74736517     0.15000
H1868       H  0.70608828  0.09875022  0.77906859     0.15000
C1869       C  0.69799916  0.03509063  0.77508514     0.36700
C1870       C  0.60038706  0.13575125  0.75064413     0.36600
N1871       N  0.71943663  0.01644749  0.78033183    -0.43700
N1872       N  0.58039386  0.15600655  0.74575863    -0.43700
C1873       C  0.82587029  0.61425600  0.75711728    -0.00100
C1874       C  0.84876482  0.60431656  0.78087117    -0.12000
C1875       C  0.86298718  0.57257620  0.78048746     0.02100
C1876       C  0.85186835  0.54771915  0.75725777    -0.00200
C1877       C  0.82839198  0.55876976  0.73339027    -0.11900
C1878       C  0.81563486  0.59133869  0.73306695     0.02000
H1879       H  0.85726477  0.62244961  0.79876055     0.15000
H1880       H  0.82012765  0.54210089  0.71424956     0.15000
C1881       C  0.79188335  0.60069848  0.70783273     0.36700
C1882       C  0.89030803  0.56884919  0.80345933     0.36600
N1883       N  0.77282450  0.60827892  0.68765336    -0.43700
N1884       N  0.91178711  0.56698005  0.82246544    -0.43700
C1885       C  0.75776745  0.83892986  0.59910054    -0.00100
C1886       C  0.78801581  0.84925267  0.58549724    -0.12000
C1887       C  0.79116965  0.85685093  0.55158267     0.02100
C1888       C  0.76252634  0.85630943  0.53056753    -0.00200
C1889       C  0.73523266  0.83780031  0.54280355    -0.11900
C1890       C  0.73182189  0.83093451  0.57710219     0.02000
H1891       H  0.80937490  0.85184419  0.60164148     0.15000
H1892       H  0.71412327  0.83364863  0.52673210     0.15000
C1893       C  0.70105352  0.81691508  0.58914876     0.36700
C1894       C  0.82477933  0.86245499  0.54014135     0.36600
N1895       N  0.67629755  0.80582398  0.59875984    -0.43700
N1896       N  0.85238625  0.86609277  0.53256923    -0.43700
C1897       C  0.59389757  0.77074219  0.83245172    -0.00100
C1898       C  0.59148265  0.76891081  0.86687656    -0.12000
C1899       C  0.56154942  0.76195714  0.88263865     0.02100
C1900       C  0.53195482  0.75623553  0.86370123    -0.00200
C1901       C  0.53429697  0.76032312  0.82870929    -0.11900
C1902       C  0.56506531  0.76719285  0.81305530     0.02000
H1903       H  0.61384072  0.77150022  0.88167962     0.15000
H1904       H  0.51238105  0.75824609  0.81342807     0.15000
C1905       C  0.56673494  0.76943638  0.77718212     0.36700
C1906       C  0.56363295  0.75787145  0.91838700     0.36600
N1907       N  0.56805358  0.77130330  0.74840261    -0.43700
N1908       N  0.56735325  0.75422783  0.94674349    -0.43700
C1909       C  0.65189906  0.98648475  0.75420068    -0.00100
C1910       C  0.65708049  0.96735026  0.78341616    -0.12000
C1911       C  0.66466547  0.93341583  0.78170970     0.02100
C1912       C  0.67051145  0.91823907  0.75033159    -0.00200
C1913       C  0.67388026  0.93899203  0.72254403    -0.11900
C1914       C  0.66709540  0.97305981  0.72482290     0.02000
H1915       H  0.65160221  0.97796037  0.80767619     0.15000
H1916       H  0.68361435  0.92895740  0.69931849     0.15000
C1917       C  0.68599078  0.99325106  0.70200369     0.36700
C1918       C  0.66536427  0.91503422  0.81266137     0.36600
N1919       N  0.70225784  0.00865789  0.68386534    -0.43700
N1920       N  0.66569507  0.90046436  0.83755285    -0.43700
C1921       C  0.73332598  0.67758761  0.90005091    -0.00100
C1922       C  0.73522655  0.64327506  0.90090710    -0.12000
C1923       C  0.73781584  0.62604602  0.93084356     0.02100
C1924       C  0.73936544  0.64321171  0.96215520    -0.00200
C1925       C  0.73572967  0.67807666  0.96105233    -0.11900
C1926       C  0.73260840  0.69520836  0.93040459     0.02000
H1927       H  0.73565329  0.62968057  0.87756667     0.15000
H1928       H  0.73548126  0.69219564  0.98388079     0.15000
C1929       C  0.72988642  0.73083434  0.93062473     0.36700
C1930       C  0.74179483  0.59057294  0.92747249     0.36600
N1931       N  0.72759745  0.75941781  0.93085904    -0.43700
N1932       N  0.74541424  0.56237600  0.92353553    -0.43700
C1933       C  0.89960516  0.75681277  0.67270472    -0.00100
C1934       C  0.92151042  0.78333976  0.67674065    -0.12000
C1935       C  0.95489457  0.78155233  0.66541226     0.02100
C1936       C  0.96754528  0.75248414  0.64900712    -0.00200
C1937       C  0.94424446  0.72640925  0.64508527    -0.11900
C1938       C  0.91155265  0.72804454  0.65701729     0.02000
H1939       H  0.91242271  0.80578759  0.68878034     0.15000
H1940       H  0.94991082  0.70459913  0.63052825     0.15000
C1941       C  0.88991868  0.70050540  0.65020964     0.36700
C1942       C  0.97489901  0.81064498  0.67022543     0.36600
N1943       N  0.87262300  0.67849862  0.64468852    -0.43700
N1944       N  0.99060297  0.83408684  0.67449883    -0.43700
loop_ 
_geom_bond_atom_site_label_1 
_geom_bond_atom_site_label_2 
_geom_bond_distance 
_geom_bond_site_symmetry_2 
_ccdc_geom_bond_type 
O1           Mg3   2.139       .  S
O1           Mg9   2.124       .  S
O1           C36   1.239       .  S
C2           O15   1.238       .  S
C2           O39   1.271       .  A
C2           H41   1.081       .  S
Mg3          O32   2.123       .  S
Mg3          O47   2.329       .  S
Mg3          O43   2.246       .  S
Mg3          O14   2.301       .  S
O4          Mg46   2.152       .  S
O4          Mg29   2.128       .  S
O4           C25   1.240       .  S
O5           C36   1.273       .  A
O5          Mg29   2.307       .  S
C6            O8   1.276       .  A
C6           O20   1.275       .  A
C6         C1885   1.483       .  S
O7           C35   1.273       .  A
O7           Mg9   2.305       .  S
O8          Mg40   2.282       .  S
Mg9          O15   2.121       .  S
Mg9          O23   2.221       .  S
Mg9          O11   2.344       .  S
C10          O48   1.273       .  A
C10          O16   1.278       .  A
C10        C1933   1.488       .  S
O11          C18   1.277       .  A
H12          C25   1.081       .  S
C13          O27   1.240       .  S
C13          O28   1.273       .  A
C13          H38   1.081       .  S
O14          C37   1.273       .  A
O15         Mg29   2.129       .  S
O16         Mg46   2.317       .  S
C17          O30   1.272       .  A
C17          O22   1.278       .  A
C17        C1873   1.477       .  S
C18          O45   1.273       .  A
C18        C1921   1.480       .  S
Mg19         O26   2.125       .  S
Mg19         O27   2.142       .  S
Mg19         O20   2.297       .  S
Mg19         O21   2.295       .  S
Mg19         O48   2.277       .  S
O21          C25   1.273       .  A
O22         Mg29   2.326       .  S
O23          C42   1.270       .  A
O24          C44   1.282       .  A
O24         Mg40   2.347       .  S
O26         Mg40   2.142       .  S
O26          C37   1.239       .  S
O27         Mg46   2.114       .  S
O28         Mg40   2.296       .  S
Mg29         O45   2.258       .  S
O30         Mg46   2.253       .  S
H31          C36   1.081       .  S
O32         Mg40   2.130       .  S
O32          C35   1.239       .  S
H33          C35   1.081       .  S
H34          C37   1.081       .  S
O39         Mg46   2.294       .  S
C42          O47   1.275       .  A
C42        C1897   1.467       .  S
O43          C44   1.271       .  A
C44        C1912   1.493       .  S
C49        C1837   1.595       .  S
C49        C1849   1.589       .  S
C49        C1861   1.568       .  S
C49        C1909   1.591   1_545  S
O50         Mg52   2.123       .  S
O50         Mg58   2.125       .  S
O50          C85   1.237       .  S
C51          O64   1.240       .  S
C51          O88   1.275       .  A
C51          H90   1.081       .  S
Mg52         O81   2.133       .  S
Mg52         O96   2.327       .  S
Mg52         O92   2.203       .  S
Mg52         O63   2.285       .  S
O53         Mg95   2.133       .  S
O53         Mg78   2.121       .  S
O53          C74   1.240       .  S
O54          C85   1.271       .  A
O54         Mg78   2.301       .  S
C55          O57   1.274       .  A
C55          O69   1.274       .  A
C55        C1777   1.474       .  S
O56          C84   1.273       .  A
O56         Mg58   2.302       .  S
O57         Mg89   2.264       .  S
Mg58         O64   2.170       .  S
Mg58         O72   2.298       .  S
Mg58         O60   2.327       .  S
C59          O97   1.268       .  A
C59          O65   1.278       .  A
C59        C1801   1.475       .  S
O60          C67   1.277       .  A
H61          C74   1.081       .  S
C62          O76   1.240       .  S
C62          O77   1.274       .  A
C62          H87   1.081       .  S
O63          C86   1.269       .  A
O64         Mg78   2.150       .  S
O65         Mg95   2.353       .  S
C66          O79   1.273       .  A
C66          O71   1.279       .  A
C66        C1789   1.490       .  S
C67          O94   1.271       .  A
C67        C1864   1.476       .  S
Mg68         O75   2.117       .  S
Mg68         O76   2.125       .  S
Mg68         O69   2.319       .  S
Mg68         O70   2.307       .  S
Mg68         O97   2.221       .  S
O70          C74   1.274       .  A
O71         Mg78   2.336       .  S
O72          C91   1.276       .  A
O73          C93   1.281       .  A
O73         Mg89   2.379       .  S
O75         Mg89   2.131       .  S
O75          C86   1.236       .  S
O76         Mg95   2.144       .  S
O77         Mg89   2.311       .  S
Mg78         O94   2.236       .  S
O79         Mg95   2.283       .  S
H80          C85   1.081       .  S
O81         Mg89   2.140       .  S
O81          C84   1.239       .  S
H82          C84   1.081       .  S
H83          C86   1.081       .  S
O88         Mg95   2.315       .  S
C91          O96   1.275       .  A
C91        C1825   1.486       .  S
O92          C93   1.270       .  A
C93        C1813   1.497       .  S
C98        C1753   1.587       .  S
C98        C1765   1.567       .  S
C98        C1780   1.579       .  S
C98        C1876   1.579       .  S
C99        C1717   1.570       .  S
C99        C1729   1.585       .  S
C99        C1741   1.589       .  S
C99        C1888   1.577       .  S
O100       Mg102   2.144       .  S
O100       Mg108   2.134       .  S
O100        C135   1.237       .  S
C101        O114   1.239       .  S
C101        O138   1.273       .  A
C101        H140   1.081       .  S
Mg102       O131   2.147       .  S
Mg102       O146   2.338       .  S
Mg102       O142   2.260       .  S
Mg102       O113   2.294       .  S
O103       Mg145   2.124       .  S
O103       Mg128   2.121       .  S
O103        C124   1.238       .  S
O104        C135   1.271       .  A
O104       Mg128   2.297       .  S
C105        O107   1.278       .  A
C105        O119   1.277       .  A
C105       C1744   1.496       .  S
O106        C134   1.273       .  A
O106       Mg108   2.305       .  S
O107       Mg139   2.296       .  S
Mg108       O114   2.127       .  S
Mg108       O122   2.234       .  S
Mg108       O110   2.388       .  S
C109        O147   1.270       .  A
C109        O115   1.274       .  A
C109       C1681   1.464       .  S
O110        C117   1.283       .  A
H111        C124   1.081       .  S
C112        O126   1.237       .  S
C112        O127   1.270       .  A
C112        H137   1.081       .  S
O113        C136   1.272       .  A
O114       Mg128   2.125       .  S
O115       Mg145   2.312       .  S
C116        O129   1.270       .  A
C116        O121   1.273       .  A
C116       C1693   1.473       .  S
C117        O144   1.268       .  A
C117       C1657   1.499       .  S
Mg118       O125   2.115       .  S
Mg118       O126   2.137       .  S
Mg118       O119   2.327       .  S
Mg118       O120   2.302       .  S
Mg118       O147   2.224       .  S
O120        C124   1.272       .  A
O121       Mg128   2.318       .  S
O122        C141   1.274       .  A
O123        C143   1.277       .  A
O123       Mg139   2.307       .  S
O125       Mg139   2.142       .  S
O125        C136   1.239       .  S
O126       Mg145   2.129       .  S
O127       Mg139   2.293       .  S
Mg128       O144   2.211       .  S
O129       Mg145   2.247       .  S
H130        C135   1.081       .  S
O131       Mg139   2.144       .  S
O131        C134   1.238       .  S
H132        C134   1.081       .  S
H133        C136   1.081       .  S
O138       Mg145   2.303       .  S
C141        O146   1.278       .  A
C141       C1705   1.486       .  S
O142        C143   1.273       .  A
C143       C1669   1.478       .  S
C148       C1633   1.580       .  S
C148       C1645   1.576       .  S
C148       C1660   1.584   1_556  S
C148       C1924   1.574       .  S
C149       C1597   1.588       .  S
C149       C1609   1.589       .  S
C149       C1621   1.576       .  S
C149       C1684   1.569       .  S
C150       C1549   1.595       .  S
C150       C1561   1.567   1_565  S
C150       C1573   1.586   1_565  S
C150       C1585   1.578       .  S
C151       C1513   1.592   1_556  S
C151       C1525   1.586       .  S
C151       C1537   1.577   1_556  S
C151       C1828   1.581       .  S
C152       C1465   1.575       .  S
C152       C1480   1.578       .  S
C152       C1489   1.592       .  S
C152       C1504   1.567       .  S
C153       C1432   1.591       .  S
C153       C1441   1.588       .  S
C153       C1453   1.580       .  S
C153       C1804   1.566       .  S
C154       C1396   1.595       .  S
C154       C1405   1.578       .  S
C154       C1417   1.587       .  S
C154       C1696   1.577       .  S
C155       C1345   1.583       .  S
C155       C1360   1.588       .  S
C155       C1372   1.568       .  S
C155       C1384   1.572       .  S
C156       C1309   1.565       .  S
C156       C1321   1.575       .  S
C156       C1336   1.576       .  S
C156       C1708   1.585   1_455  S
O157       Mg159   2.118       .  S
O157       Mg165   2.122       .  S
O157        C192   1.239       .  S
C158        O171   1.239       .  S
C158        O195   1.272       .  A
C158        H197   1.081       .  S
Mg159       O188   2.149       .  S
Mg159       O203   2.341       .  S
Mg159       O199   2.266       .  S
Mg159       O170   2.302       .  S
O160       Mg202   2.147       .  S
O160       Mg185   2.120       .  S
O160        C181   1.237       .  S
O161        C192   1.272       .  A
O161       Mg185   2.299       .  S
C162        O164   1.275       .  A
C162        O176   1.273       .  A
C162       C1300   1.497       .  S
O163        C191   1.274       .  A
O163       Mg165   2.310       .  S
O164       Mg196   2.320       .  S
Mg165       O171   2.120       .  S
Mg165       O179   2.259       .  S
Mg165       O167   2.321       .  S
C166        O204   1.274       .  A
C166        O172   1.280       .  A
C166       C1312   1.488       .  S
O167        C174   1.278       .  A
H168        C181   1.081       .  S
C169        O183   1.239       .  S
C169        O184   1.271       .  A
C169        H194   1.081       .  S
O170        C193   1.273       .  A
O171       Mg185   2.139       .  S
O172       Mg202   2.314       .  S
C173        O186   1.273       .  A
C173        O178   1.273       .  A
C173       C1273   1.468       .  S
C174        O201   1.271       .  A
C174       C1285   1.485       .  S
Mg175       O182   2.118       .  S
Mg175       O183   2.157       .  S
Mg175       O176   2.271       .  S
Mg175       O177   2.287       .  S
Mg175       O204   2.280       .  S
O177        C181   1.269       .  A
O178       Mg185   2.283       .  S
O179        C198   1.273       .  A
O180        C200   1.273       .  A
O180       Mg196   2.267       .  S
O182       Mg196   2.158       .  S
O182        C193   1.239       .  S
O183       Mg202   2.114       .  S
O184       Mg196   2.290       .  S
Mg185       O201   2.259       .  S
O186       Mg202   2.273       .  S
H187        C192   1.081       .  S
O188       Mg196   2.144       .  S
O188        C191   1.240       .  S
H189        C191   1.081       .  S
H190        C193   1.081       .  S
O195       Mg202   2.295       .  S
C198        O203   1.279       .  A
C198       C1600   1.480       .  S
O199        C200   1.272       .  A
C200       C1381   1.478       .  S
C205       C1237   1.556   1_554  S
C205       C1249   1.582       .  S
C205       C1264   1.575       .  S
C205       C1276   1.578       .  S
C206       C1201   1.584       .  S
C206       C1213   1.572       .  S
C206       C1225   1.566       .  S
C206       C1792   1.593       .  S
O207       Mg209   2.114       .  S
O207       Mg215   2.149       .  S
O207        C242   1.236       .  S
C208        O221   1.241       .  S
C208        O245   1.275       .  A
C208        H247   1.081       .  S
Mg209       O238   2.146       .  S
Mg209       O253   2.280       .  S
Mg209       O249   2.258       .  S
Mg209       O220   2.288       .  S
O210       Mg252   2.145       .  S
O210       Mg235   2.127       .  S
O210        C231   1.240       .  S
O211        C242   1.268       .  A
O211       Mg235   2.288       .  S
C212        O214   1.274       .  A
C212        O226   1.279       .  A
C212       C1189   1.479       .  S
O213        C241   1.272       .  A
O213       Mg215   2.293       .  S
O214       Mg246   2.264       .  S
Mg215       O221   2.133       .  S
Mg215       O229   2.296       .  S
Mg215       O217   2.304       .  S
C216        O254   1.272       .  A
C216        O222   1.278       .  A
C216       C1564   1.493       .  S
O217        C224   1.280       .  A
H218        C231   1.081       .  S
C219        O233   1.240       .  S
C219        O234   1.274       .  A
C219        H244   1.081       .  S
O220        C243   1.270       .  A
O221       Mg235   2.161       .  S
O222       Mg252   2.317       .  S
C223        O236   1.273       .  A
C223        O228   1.275       .  A
C223       C1168   1.484       .  S
C224        O251   1.274       .  A
C224       C1180   1.501       .  S
Mg225       O232   2.111       .  S
Mg225       O233   2.133       .  S
Mg225       O226   2.343       .  S
Mg225       O227   2.311       .  S
Mg225       O254   2.261       .  S
O227        C231   1.274       .  A
O228       Mg235   2.280       .  S
O229        C248   1.276       .  A
O230        C250   1.280       .  A
O230       Mg246   2.326       .  S
O232       Mg246   2.125       .  S
O232        C243   1.238       .  S
O233       Mg252   2.133       .  S
O234       Mg246   2.305       .  S
Mg235       O251   2.295       .  S
O236       Mg252   2.292       .  S
H237        C242   1.081       .  S
O238       Mg246   2.120       .  S
O238        C241   1.239       .  S
H239        C241   1.081       .  S
H240        C243   1.081       .  S
O245       Mg252   2.306       .  S
C248        O253   1.274       .  A
C248       C1477   1.485       .  S
O249        C250   1.272       .  A
C250       C1228   1.489       .  S
C255       C1141   1.580       .  S
C255       C1156   1.561       .  S
C255       C1165   1.573   1_655  S
C255       C1816   1.578       .  S
O256       Mg258   2.117       .  S
O256       Mg264   2.149       .  S
O256        C291   1.237       .  S
C257        O270   1.239       .  S
C257        O294   1.272       .  A
C257        H296   1.081       .  S
Mg258       O287   2.142       .  S
Mg258       O302   2.273       .  S
Mg258       O298   2.260       .  S
Mg258       O269   2.294       .  S
O259       Mg301   2.147       .  S
O259       Mg284   2.145       .  S
O259        C280   1.240       .  S
O260        C291   1.269       .  A
O260       Mg284   2.290       .  S
C261        O263   1.273       .  A
C261        O275   1.279       .  A
C261       C1429   1.478       .  S
O262        C290   1.272       .  A
O262       Mg264   2.296       .  S
O263       Mg295   2.261       .  S
Mg264       O270   2.109       .  S
Mg264       O278   2.266       .  S
Mg264       O266   2.319       .  S
C265        O303   1.273       .  A
C265        O271   1.275       .  A
C265       C1420   1.476       .  S
O266        C273   1.279       .  A
H267        C280   1.081       .  S
C268        O282   1.237       .  S
C268        O283   1.271       .  A
C268        H293   1.081       .  S
O269        C292   1.272       .  A
O270       Mg284   2.147       .  S
O271       Mg301   2.324       .  S
C272        O285   1.269       .  A
C272        O277   1.273       .  A
C272       C1132   1.462       .  S
C273        O300   1.275       .  A
C273       C1516   1.504       .  S
Mg274       O281   2.126       .  S
Mg274       O282   2.121       .  S
Mg274       O275   2.341       .  S
Mg274       O276   2.312       .  S
Mg274       O303   2.267       .  S
O276        C280   1.275       .  A
O277       Mg284   2.280       .  S
O278        C297   1.273       .  A
O279        C299   1.279       .  A
O279       Mg295   2.323       .  S
O281       Mg295   2.142       .  S
O281        C292   1.239       .  S
O282       Mg301   2.119       .  S
O283       Mg295   2.299       .  S
Mg284       O300   2.295       .  S
O285       Mg301   2.239       .  S
H286        C291   1.081       .  S
O287       Mg295   2.118       .  S
O287        C290   1.239       .  S
H288        C290   1.081       .  S
H289        C292   1.081       .  S
O294       Mg301   2.294       .  S
C297        O302   1.272       .  A
C297       C1108   1.479       .  S
O298        C299   1.270       .  A
C299       C1117   1.486       .  S
C304       C1081   1.589   1_545  S
C304       C1093   1.579       .  S
C304       C1105   1.560       .  S
C304       C1672   1.584   1_545  S
C305       C1045   1.582       .  S
C305       C1057   1.581   1_655  S
C305       C1069   1.586   1_655  S
C305       C1120   1.570       .  S
O306       Mg308   2.116       .  S
O306       Mg314   2.123       .  S
O306        C341   1.237       .  S
C307        O320   1.238       .  S
C307        O344   1.272       .  A
C307        H346   1.081       .  S
Mg308       O337   2.128       .  S
Mg308       O352   2.320       .  S
Mg308       O348   2.221       .  S
Mg308       O319   2.307       .  S
O309       Mg351   2.129       .  S
O309       Mg334   2.145       .  S
O309        C330   1.238       .  S
O310        C341   1.270       .  A
O310       Mg334   2.293       .  S
C311        O313   1.270       .  A
C311        O325   1.280       .  A
C311       C1021   1.506       .  S
O312        C340   1.273       .  A
O312       Mg314   2.301       .  S
O313       Mg345   2.250       .  S
Mg314       O320   2.134       .  S
Mg314       O328   2.255       .  S
Mg314       O316   2.315       .  S
C315        O353   1.271       .  A
C315        O321   1.278       .  A
C315        C997   1.478       .  S
O316        C323   1.275       .  A
H317        C330   1.081       .  S
C318        O332   1.239       .  S
C318        O333   1.274       .  A
C318        H343   1.081       .  S
O319        C342   1.273       .  A
O320       Mg334   2.143       .  S
O321       Mg351   2.345       .  S
C322        O335   1.273       .  A
C322        O327   1.277       .  A
C322       C1072   1.495       .  S
C323        O350   1.273       .  A
C323        C988   1.467       .  S
Mg324       O331   2.118       .  S
Mg324       O332   2.130       .  S
Mg324       O325   2.365       .  S
Mg324       O326   2.313       .  S
Mg324       O353   2.228       .  S
O326        C330   1.274       .  A
O327       Mg334   2.344       .  S
O328        C347   1.272       .  A
O329        C349   1.274       .  A
O329       Mg345   2.314       .  S
O331       Mg345   2.119       .  S
O331        C342   1.239       .  S
O332       Mg351   2.148       .  S
O333       Mg345   2.308       .  S
Mg334       O350   2.251       .  S
O335       Mg351   2.250       .  S
H336        C341   1.082       .  S
O337       Mg345   2.131       .  S
O337        C340   1.239       .  S
H338        C340   1.081       .  S
H339        C342   1.081       .  S
O344       Mg351   2.298       .  S
C347        O352   1.273       .  A
C347       C1033   1.477       .  S
O348        C349   1.267       .  A
C349       C1012   1.462       .  S
C354        C964   1.581       .  S
C354        C973   1.563       .  S
C354       C1036   1.577   1_556  S
C354       C1177   1.582       .  S
C355        C940   1.568       .  S
C355        C949   1.577       .  S
C355       C1024   1.588   1_565  S
C355       C1288   1.569       .  S
O356       Mg358   2.124       .  S
O356       Mg364   2.134   1_545  S
O356        C391   1.240       .  S
C357        O370   1.237   1_455  S
C357        O394   1.271       .  A
C357        H396   1.081       .  S
Mg358       O387   2.134   1_655  S
Mg358       O402   2.350       .  S
Mg358       O398   2.235       .  S
Mg358       O369   2.313       .  S
O359       Mg401   2.113   1_655  S
O359       Mg384   2.142       .  S
O359        C380   1.240       .  S
O360        C391   1.273   1_565  A
O360       Mg384   2.298       .  S
C361        O363   1.271       .  A
C361        O375   1.274       .  A
C361        C925   1.488       .  S
O362        C390   1.273   1_565  A
O362       Mg364   2.299   1_455  S
O363       Mg395   2.252       .  S
Mg364       O370   2.121       .  S
Mg364       O378   2.231       .  S
Mg364       O366   2.295       .  S
C365        O403   1.271   1_565  A
C365        O371   1.275       .  A
C365       C1576   1.498       .  S
O366        C373   1.272       .  A
H367        C380   1.081       .  S
C368        O382   1.240       .  S
C368        O383   1.276   1_565  A
C368        H393   1.081       .  S
O369        C392   1.273       .  A
O370       Mg384   2.135       .  S
O371       Mg401   2.347       .  S
C372        O385   1.269   1_655  A
C372        O377   1.280       .  A
C372        C913   1.501       .  S
C373        O400   1.274       .  A
C373       C1720   1.475       .  S
Mg374       O381   2.149       .  S
Mg374       O382   2.109   1_545  S
Mg374       O375   2.343       .  S
Mg374       O376   2.313   1_455  S
Mg374       O403   2.231       .  S
O376        C380   1.275   1_545  A
O377       Mg384   2.373       .  S
O378        C397   1.268   1_565  A
O379        C399   1.279       .  A
O379       Mg395   2.356       .  S
O381       Mg395   2.109       .  S
O381        C392   1.238   1_455  S
O382       Mg401   2.142       .  S
O383       Mg395   2.327       .  S
Mg384       O400   2.261       .  S
O385       Mg401   2.223       .  S
H386        C391   1.081       .  S
O387       Mg395   2.132       .  S
O387        C390   1.240       .  S
H388        C390   1.081       .  S
H389        C392   1.081       .  S
O394       Mg401   2.299       .  S
C397        O402   1.278       .  A
C397       C1096   1.476       .  S
O398        C399   1.270   1_655  A
C399       C1060   1.475       .  S
O404       Mg406   2.110   1_545  S
O404       Mg412   2.142       .  S
O404        C439   1.239       .  S
C405        O418   1.238       .  S
C405        O442   1.271   1_545  A
C405        H444   1.081       .  S
Mg406       O435   2.137       .  S
Mg406       O450   2.300   1_565  S
Mg406       O446   2.257       .  S
Mg406       O417   2.305   1_556  S
O407       Mg449   2.150   1_545  S
O407       Mg432   2.124       .  S
O407        C428   1.239       .  S
O408        C439   1.271   1_554  A
O408       Mg432   2.287   1_455  S
C409        O411   1.270       .  A
C409        O423   1.277       .  A
C409       C1333   1.468       .  S
O410        C438   1.269       .  A
O410       Mg412   2.288   1_565  S
O411       Mg443   2.245       .  S
Mg412       O418   2.107   1_455  S
Mg412       O426   2.252       .  S
Mg412       O414   2.276       .  S
C413        O451   1.274       .  A
C413        O419   1.281       .  A
C413       C1084   1.500       .  S
O414        C421   1.274   1_455  A
H415        C428   1.081       .  S
C416        O430   1.238       .  S
C416        O431   1.272       .  A
C416        H441   1.081       .  S
O417        C440   1.274       .  A
O418       Mg432   2.146   1_556  S
O419       Mg449   2.306       .  S
C420        O433   1.279       .  A
C420        O425   1.274       .  A
C420       C1540   1.494       .  S
C421        O448   1.273       .  A
C421       C1153   1.476       .  S
Mg422       O429   2.143       .  S
Mg422       O430   2.151   1_455  S
Mg422       O423   2.320       .  S
Mg422       O424   2.300   1_565  S
Mg422       O451   2.294   1_455  S
O424        C428   1.272   1_455  A
O425       Mg432   2.287       .  S
O426        C445   1.272       .  A
O427        C447   1.279   1_554  A
O427       Mg443   2.319       .  S
O429       Mg443   2.146       .  S
O429        C440   1.241       .  S
O430       Mg449   2.130       .  S
O431       Mg443   2.301   1_655  S
Mg432       O448   2.276   1_554  S
O433       Mg449   2.309   1_545  S
H434        C439   1.081       .  S
O435       Mg443   2.099   1_556  S
O435        C438   1.237       .  S
H436        C438   1.081       .  S
H437        C440   1.081       .  S
O442       Mg449   2.290   1_556  S
C445        O450   1.275       .  A
C445       C1588   1.488       .  S
O446        C447   1.270       .  A
C447       C1261   1.485       .  S
O452       Mg454   2.125       .  S
O452       Mg460   2.129       .  S
O452        C487   1.237       .  S
C453        O466   1.239       .  S
C453        O490   1.273   1_565  A
C453        H492   1.081       .  S
Mg454       O483   2.139       .  S
Mg454       O498   2.326       .  S
Mg454       O494   2.248       .  S
Mg454       O465   2.299   1_565  S
O455       Mg497   2.130       .  S
O455       Mg480   2.120       .  S
O455        C476   1.238       .  S
O456        C487   1.270   1_545  A
O456       Mg480   2.296       .  S
C457        O459   1.274   1_545  A
C457        O471   1.277       .  A
C457       C1852   1.477       .  S
O458        C486   1.274       .  A
O458       Mg460   2.308       .  S
O459       Mg491   2.271       .  S
Mg460       O466   2.122       .  S
Mg460       O474   2.241       .  S
Mg460       O462   2.356       .  S
C461        O499   1.273       .  A
C461        O467   1.276       .  A
C461       C1216   1.475       .  S
O462        C469   1.280       .  A
H463        C476   1.081       .  S
C464        O478   1.239       .  S
C464        O479   1.272   1_545  A
C464        H489   1.081       .  S
O465        C488   1.273       .  A
O466       Mg480   2.126   1_565  S
O467       Mg497   2.331       .  S
C468        O481   1.271       .  A
C468        O473   1.269       .  A
C468        C904   1.464       .  S
C469        O496   1.265   1_565  A
C469        C952   1.494       .  S
Mg470       O477   2.130       .  S
Mg470       O478   2.130       .  S
Mg470       O471   2.330       .  S
Mg470       O472   2.301       .  S
Mg470       O499   2.255       .  S
O472        C476   1.272       .  A
O473       Mg480   2.281       .  S
O474        C493   1.271       .  A
O475        C495   1.278       .  A
O475       Mg491   2.329       .  S
O477       Mg491   2.139   1_545  S
O477        C488   1.239       .  S
O478       Mg497   2.132       .  S
O479       Mg491   2.302       .  S
Mg480       O496   2.214       .  S
O481       Mg497   2.257       .  S
H482        C487   1.081       .  S
O483       Mg491   2.140       .  S
O483        C486   1.239       .  S
H484        C486   1.081       .  S
H485        C488   1.081       .  S
O490       Mg497   2.303       .  S
C493        O498   1.276       .  A
C493       C1624   1.468       .  S
O494        C495   1.271       .  A
C495       C1732   1.483       .  S
C500        C901   1.567       .  S
C500        C928   1.592       .  S
C500       C1000   1.581       .  S
C500       C1192   1.594       .  S
O501       Mg503   2.119   1_556  S
O501       Mg509   2.136   1_545  S
O501        C536   1.239       .  S
C502        O515   1.238       .  S
C502        O539   1.271   1_556  A
C502        H541   1.082       .  S
Mg503       O532   2.136       .  S
Mg503       O547   2.307       .  S
Mg503       O543   2.250       .  S
Mg503       O514   2.305       .  S
O504       Mg546   2.154   1_556  S
O504       Mg529   2.137       .  S
O504        C525   1.239       .  S
O505        C536   1.272       .  A
O505       Mg529   2.297   1_545  S
C506        O508   1.273       .  A
C506        O520   1.274       .  A
C506        C937   1.483       .  S
O507        C535   1.273   1_565  A
O507       Mg509   2.301   1_554  S
O508       Mg540   2.267       .  S
Mg509       O515   2.121       .  S
Mg509       O523   2.278   1_565  S
Mg509       O511   2.305       .  S
C510        O548   1.274       .  A
C510        O516   1.278       .  A
C510       C1252   1.505       .  S
O511        C518   1.278       .  A
H512        C525   1.081       .  S
C513        O527   1.238       .  S
C513        O528   1.271       .  A
C513        H538   1.081       .  S
O514        C537   1.273       .  A
O515       Mg529   2.147       .  S
O516       Mg546   2.300       .  S
C517        O530   1.272       .  A
C517        O522   1.278       .  A
C517        C880   1.480       .  S
C518        O545   1.275       .  A
C518       C1840   1.495       .  S
Mg519       O526   2.144   1_565  S
Mg519       O527   2.145       .  S
Mg519       O520   2.280   1_565  S
Mg519       O521   2.297   1_554  S
Mg519       O548   2.308       .  S
O521        C525   1.272       .  A
O522       Mg529   2.301       .  S
O523        C542   1.274       .  A
O524        C544   1.280       .  A
O524       Mg540   2.319       .  S
O526       Mg540   2.152       .  S
O526        C537   1.239       .  S
O527       Mg546   2.106       .  S
O528       Mg540   2.297   1_565  S
Mg529       O545   2.303       .  S
O530       Mg546   2.255   1_556  S
H531        C536   1.081       .  S
O532       Mg540   2.121       .  S
O532        C535   1.239       .  S
H533        C535   1.081       .  S
H534        C537   1.081       .  S
O539       Mg546   2.294       .  S
C542        O547   1.274   1_556  A
C542       C1528   1.475       .  S
O543        C544   1.269       .  A
C544        C889   1.486       .  S
C549        C865   1.575       .  S
C549        C892   1.575       .  S
C549       C1009   1.573       .  S
C549       C1129   1.565       .  S
O550       Mg552   2.123   1_556  S
O550       Mg558   2.122       .  S
O550        C585   1.238   1_556  S
C551        O564   1.238       .  S
C551        O588   1.270       .  A
C551        H590   1.081       .  S
Mg552       O581   2.125       .  S
Mg552       O596   2.331       .  S
Mg552       O592   2.221       .  S
Mg552       O563   2.300       .  S
O553       Mg595   2.126       .  S
O553       Mg578   2.122       .  S
O553        C574   1.239       .  S
O554        C585   1.272   1_556  A
O554       Mg578   2.299       .  S
C555        O557   1.274       .  A
C555        O569   1.275       .  A
C555        C868   1.478       .  S
O556        C584   1.276       .  A
O556       Mg558   2.314       .  S
O557       Mg589   2.238       .  S
Mg558       O564   2.122       .  S
Mg558       O572   2.263       .  S
Mg558       O560   2.311       .  S
C559        O597   1.270   1_556  A
C559        O565   1.275       .  A
C559        C976   1.470       .  S
O560        C567   1.278       .  A
H561        C574   1.081       .  S
C562        O576   1.238       .  S
C562        O577   1.274       .  A
C562        H587   1.081       .  S
O563        C586   1.271       .  A
O564       Mg578   2.150       .  S
O565       Mg595   2.323       .  S
C566        O579   1.274       .  A
C566        O571   1.280       .  A
C566       C1492   1.497       .  S
C567        O594   1.273       .  A
C567        C853   1.477       .  S
Mg568       O575   2.144       .  S
Mg568       O576   2.134   1_554  S
Mg568       O569   2.325       .  S
Mg568       O570   2.297       .  S
Mg568       O597   2.246       .  S
O570        C574   1.272   1_554  A
O571       Mg578   2.363       .  S
O572        C591   1.272       .  A
O573        C593   1.283       .  A
O573       Mg589   2.401       .  S
O575       Mg589   2.134       .  S
O575        C586   1.237       .  S
O576       Mg595   2.146       .  S
O577       Mg589   2.315   1_556  S
Mg578       O594   2.251       .  S
O579       Mg595   2.245       .  S
H580        C585   1.081       .  S
O581       Mg589   2.140       .  S
O581        C584   1.242   1_554  S
H582        C584   1.081       .  S
H583        C586   1.081       .  S
O588       Mg595   2.287       .  S
C591        O596   1.275   1_556  A
C591       C1648   1.478       .  S
O592        C593   1.269       .  A
C593       C1393   1.511       .  S
O598       Mg600   2.121       .  S
O598       Mg606   2.150   1_655  S
O598        C633   1.237       .  S
C599        O612   1.240       .  S
C599        O636   1.274       .  A
C599        H638   1.081       .  S
Mg600       O629   2.150       .  S
Mg600       O644   2.324       .  S
Mg600       O640   2.277       .  S
Mg600       O611   2.301       .  S
O601       Mg643   2.143       .  S
O601       Mg626   2.132       .  S
O601        C622   1.238       .  S
O602        C633   1.270       .  A
O602       Mg626   2.291   1_655  S
C603        O605   1.275       .  A
C603        O617   1.278   1_655  A
C603       C1048   1.478       .  S
O604        C632   1.270       .  A
O604       Mg606   2.293   1_655  S
O605       Mg637   2.280       .  S
Mg606       O612   2.141       .  S
Mg606       O620   2.292   1_455  S
Mg606       O608   2.294       .  S
C607        O645   1.276       .  A
C607        O613   1.277       .  A
C607        C841   1.487       .  S
O608        C615   1.276       .  A
H609        C622   1.081       .  S
C610        O624   1.239       .  S
C610        O625   1.273       .  A
C610        H635   1.081       .  S
O611        C634   1.273       .  A
O612       Mg626   2.160       .  S
O613       Mg643   2.337       .  S
C614        O627   1.270       .  A
C614        O619   1.276       .  A
C614       C1369   1.475       .  S
C615        O642   1.273       .  A
C615        C829   1.484       .  S
Mg616       O623   2.142   1_455  S
Mg616       O624   2.129       .  S
Mg616       O617   2.326       .  S
Mg616       O618   2.304       .  S
Mg616       O645   2.287       .  S
O618        C622   1.272       .  A
O619       Mg626   2.297       .  S
O620        C639   1.275       .  A
O621        C641   1.282       .  A
O621       Mg637   2.329       .  S
O623       Mg637   2.147       .  S
O623        C634   1.239       .  S
O624       Mg643   2.126       .  S
O625       Mg637   2.302   1_455  S
Mg626       O642   2.279       .  S
O627       Mg643   2.250       .  S
H628        C633   1.081       .  S
O629       Mg637   2.131       .  S
O629        C632   1.237       .  S
H630        C632   1.081       .  S
H631        C634   1.081       .  S
O636       Mg643   2.306       .  S
C639        O644   1.280       .  A
C639       C1756   1.503       .  S
O640        C641   1.273       .  A
C641       C1456   1.490       .  S
O646       Mg648   2.124   1_554  S
O646       Mg654   2.145       .  S
O646        C681   1.238       .  S
C647        O660   1.238       .  S
C647        O684   1.271   1_554  A
C647        H686   1.081       .  S
Mg648       O677   2.141       .  S
Mg648       O692   2.299       .  S
Mg648       O688   2.256       .  S
Mg648       O659   2.296   1_456  S
O649       Mg691   2.157   1_554  S
O649       Mg674   2.127       .  S
O649        C670   1.239       .  S
O650        C681   1.271   1_655  A
O650       Mg674   2.291       .  S
C651        O653   1.271       .  A
C651        O665   1.280       .  A
C651       C1768   1.489       .  S
O652        C680   1.272       .  A
O652       Mg654   2.299   1_556  S
O653       Mg685   2.266       .  S
Mg654       O660   2.108       .  S
Mg654       O668   2.257       .  S
Mg654       O656   2.325       .  S
C655        O693   1.272       .  A
C655        O661   1.279       .  A
C655       C1636   1.472       .  S
O656        C663   1.279       .  A
H657        C670   1.081       .  S
C658        O672   1.238       .  S
C658        O673   1.272       .  A
C658        H683   1.082       .  S
O659        C682   1.272   1_554  A
O660       Mg674   2.142   1_455  S
O661       Mg691   2.328       .  S
C662        O675   1.275       .  A
C662        O667   1.273       .  A
C662       C1324   1.477       .  S
C663        O690   1.273       .  A
C663        C817   1.494       .  S
Mg664       O671   2.118       .  S
Mg664       O672   2.143       .  S
Mg664       O665   2.319       .  S
Mg664       O666   2.297   1_556  S
Mg664       O693   2.254       .  S
O666        C670   1.272       .  A
O667       Mg674   2.270       .  S
O668        C687   1.272       .  A
O669        C689   1.275   1_655  A
O669       Mg685   2.308       .  S
O671       Mg685   2.146       .  S
O671        C682   1.239       .  S
O672       Mg691   2.135       .  S
O673       Mg685   2.300       .  S
Mg674       O690   2.279   1_655  S
O675       Mg691   2.290   1_554  S
H676        C681   1.081       .  S
O677       Mg685   2.123   1_455  S
O677        C680   1.239       .  S
H678        C680   1.081       .  S
H679        C682   1.081       .  S
O684       Mg691   2.290   1_455  S
C687        O692   1.274   1_554  A
C687        C961   1.467       .  S
O688        C689   1.270       .  A
C689       C1144   1.470       .  S
C694        C820   1.583       .  S
C694        C844   1.594       .  S
C694        C985   1.572       .  S
C694       C1297   1.593       .  S
O695       Mg697   2.128       .  S
O695       Mg703   2.155       .  S
O695        C730   1.239       .  S
C696        O709   1.236       .  S
C696        O733   1.269       .  A
C696        H735   1.081       .  S
Mg697       O726   2.160       .  S
Mg697       O741   2.299       .  S
Mg697       O737   2.305       .  S
Mg697       O708   2.300       .  S
O698       Mg740   2.164       .  S
O698       Mg723   2.133       .  S
O698        C719   1.238       .  S
O699        C730   1.272       .  A
O699       Mg723   2.296       .  S
C700        O702   1.277       .  A
C700        O714   1.276       .  A
C700       C1204   1.501       .  S
O701        C729   1.272       .  A
O701       Mg703   2.297       .  S
O702       Mg734   2.328       .  S
Mg703       O709   2.119       .  S
Mg703       O717   2.285       .  S
Mg703       O705   2.292       .  S
C704        O742   1.274       .  A
C704        O710   1.277       .  A
C704       C1501   1.488       .  S
O705        C712   1.277       .  A
H706        C719   1.081       .  S
C707        O721   1.239       .  S
C707        O722   1.272       .  A
C707        H732   1.081       .  S
O708        C731   1.272       .  A
O709       Mg723   2.154       .  S
O710       Mg740   2.293       .  S
C711        O724   1.273       .  A
C711        O716   1.277       .  A
C711       C1357   1.489       .  S
C712        O739   1.276       .  A
C712       C1612   1.494       .  S
Mg713       O720   2.130       .  S
Mg713       O721   2.157       .  S
Mg713       O714   2.275       .  S
Mg713       O715   2.294       .  S
Mg713       O742   2.295       .  S
O715        C719   1.271       .  A
O716       Mg723   2.284       .  S
O717        C736   1.273       .  A
O718        C738   1.280       .  A
O718       Mg734   2.292       .  S
O720       Mg734   2.164       .  S
O720        C731   1.238       .  S
O721       Mg740   2.128       .  S
O722       Mg734   2.299       .  S
Mg723       O739   2.311       .  S
O724       Mg740   2.286       .  S
H725        C730   1.081       .  S
O726       Mg734   2.132       .  S
O726        C729   1.239       .  S
H727        C729   1.081       .  S
H728        C731   1.081       .  S
O733       Mg740   2.292       .  S
C736        O741   1.278       .  A
C736       C1408   1.486       .  S
O737        C738   1.274       .  A
C738       C1444   1.498       .  S
C743        C805   1.579       .  S
C743        C832   1.571       .  S
C743        C916   1.590       .  S
C743       C1936   1.587   1_455  S
O744       Mg746   2.147       .  S
O744       Mg752   2.152       .  S
O744        C779   1.238       .  S
C745        O758   1.238       .  S
C745        O782   1.271       .  A
C745        H784   1.081       .  S
Mg746       O775   2.141       .  S
Mg746       O790   2.285       .  S
Mg746       O786   2.309       .  S
Mg746       O757   2.284       .  S
O747       Mg789   2.129       .  S
O747       Mg772   2.126       .  S
O747        C768   1.240       .  S
O748        C779   1.273       .  A
O748       Mg772   2.306       .  S
C749        O751   1.273       .  A
C749        O763   1.276       .  A
C749        C808   1.489       .  S
O750        C778   1.273       .  A
O750       Mg752   2.297       .  S
O751       Mg783   2.270       .  S
Mg752       O758   2.107       .  S
Mg752       O766   2.245       .  S
Mg752       O754   2.310       .  S
C753        O791   1.271       .  A
C753        O759   1.271       .  A
C753       C1348   1.470       .  S
O754        C761   1.277       .  A
H755        C768   1.081       .  S
C756        O770   1.240       .  S
C756        O771   1.273       .  A
C756        H781   1.081       .  S
O757        C780   1.269       .  A
O758       Mg772   2.139       .  S
O759       Mg789   2.302       .  S
C760        O773   1.268       .  A
C760        O765   1.276       .  A
C760       C1468   1.465       .  S
C761        O788   1.273       .  A
C761        C793   1.500       .  S
Mg762       O769   2.102       .  S
Mg762       O770   2.128       .  S
Mg762       O763   2.298       .  S
Mg762       O764   2.306       .  S
Mg762       O791   2.256       .  S
O764        C768   1.274       .  A
O765       Mg772   2.325       .  S
O766        C785   1.271       .  A
O767        C787   1.278       .  A
O767       Mg783   2.319       .  S
O769       Mg783   2.141       .  S
O769        C780   1.237       .  S
O770       Mg789   2.123       .  S
O771       Mg783   2.301       .  S
Mg772       O788   2.283       .  S
O773       Mg789   2.229       .  S
H774        C779   1.081       .  S
O775       Mg783   2.116       .  S
O775        C778   1.240       .  S
H776        C778   1.081       .  S
H777        C780   1.081       .  S
O782       Mg789   2.296       .  S
C785        O790   1.276       .  A
C785       C1240   1.471       .  S
O786        C787   1.279       .  A
C787       C1552   1.503       .  S
C792        C796   1.590       .  S
C792        C856   1.581       .  S
C792        C877   1.570       .  S
C792       C1900   1.568       .  S
C793        C794   1.409       .  A
C793        C798   1.409       .  A
C794        H799   1.084       .  S
C794        C795   1.415       .  A
C795        C796   1.429       .  A
C795        C802   1.443       .  S
C796        C797   1.426       .  A
C797        H800   1.077       .  S
C797        C798   1.392       .  A
C798        C801   1.448       .  S
C801        N803   1.158       .  T
C802        N804   1.157       .  T
C805        C806   1.426       .  A
C805        C810   1.425       .  A
C806        H811   1.083       .  S
C806        C807   1.388       .  A
C807        C808   1.406       .  A
C807        C814   1.447       .  S
C808        C809   1.410       .  A
C809        H812   1.085       .  S
C809        C810   1.413       .  A
C810        C813   1.441       .  S
C813        N815   1.158   1_455  T
C814        N816   1.157       .  T
C817        C818   1.409       .  A
C817        C822   1.405       .  A
C818        H823   1.085       .  S
C818        C819   1.414       .  A
C819        C820   1.427       .  A
C819        C826   1.440       .  S
C820        C821   1.426       .  A
C821        H824   1.085       .  S
C821        C822   1.393       .  A
C822        C825   1.446       .  S
C825        N827   1.157       .  T
C826        N828   1.158       .  T
C829        C830   1.394       .  A
C829        C834   1.413       .  A
C830        H835   1.086       .  S
C830        C831   1.391       .  A
C831        C832   1.434       .  A
C831        C838   1.447       .  S
C832        C833   1.415       .  A
C833        H836   1.081       .  S
C833        C834   1.409       .  A
C834        C837   1.443       .  S
C837        N839   1.157       .  T
C838        N840   1.157       .  T
C841        C842   1.405       .  A
C841        C846   1.397       .  A
C842        H847   1.085       .  S
C842        C843   1.415       .  A
C843        C844   1.433       .  A
C843        C850   1.444       .  S
C844        C845   1.432       .  A
C845        H848   1.074       .  S
C845        C846   1.397       .  A
C846        C849   1.447       .  S
C849        N851   1.157       .  T
C850        N852   1.157       .  T
C853        C854   1.404       .  A
C853        C858   1.396       .  A
C854        H859   1.085       .  S
C854        C855   1.408       .  A
C855        C856   1.429       .  A
C855        C862   1.444       .  S
C856        C857   1.431       .  A
C857        H860   1.076       .  S
C857        C858   1.391       .  A
C858        C861   1.448       .  S
C861        N863   1.157       .  T
C862        N864   1.158       .  T
C865        C866   1.420       .  A
C865        C870   1.440       .  A
C866        H871   1.077       .  S
C866        C867   1.413       .  A
C867        C868   1.410       .  A
C867        C874   1.442       .  S
C868        C869   1.385       .  A
C869        H872   1.087       .  S
C869        C870   1.386       .  A
C870        C873   1.444       .  S
C873        N875   1.157       .  T
C874        N876   1.157   1_554  T
C877        C878   1.425       .  A
C877        C882   1.424       .  A
C878        H883   1.085       .  S
C878        C879   1.384       .  A
C879        C880   1.402       .  A
C879        C886   1.447       .  S
C880        C881   1.409       .  A
C881        H884   1.085       .  S
C881        C882   1.411       .  A
C882        C885   1.441       .  S
C885        N887   1.158       .  T
C886        N888   1.157       .  T
C889        C890   1.389       .  A
C889        C894   1.415       .  A
C890        H895   1.086       .  S
C890        C891   1.390       .  A
C891        C892   1.440       .  A
C891        C898   1.446       .  S
C892        C893   1.413       .  A
C893        H896   1.074       .  S
C893        C894   1.410       .  A
C894        C897   1.443       .  S
C897        N899   1.157   1_554  T
C898        N900   1.158       .  T
C901        C902   1.427       .  A
C901        C906   1.424       .  A
C902        H907   1.084       .  S
C902        C903   1.386       .  A
C903        C904   1.394       .  A
C903        C910   1.446       .  S
C904        C905   1.404       .  A
C905        H908   1.085       .  S
C905        C906   1.410       .  A
C906        C909   1.440       .  S
C909        N911   1.158       .  T
C910        N912   1.157       .  T
C913        C914   1.409       .  A
C913        C918   1.412   1_655  A
C914        H919   1.084       .  S
C914        C915   1.418       .  A
C915        C916   1.431   1_655  A
C915        C922   1.443       .  S
C916        C917   1.421       .  A
C917        H920   1.073       .  S
C917        C918   1.386       .  A
C918        C921   1.450       .  S
C921        N923   1.158       .  T
C922        N924   1.157       .  T
C925        C926   1.404       .  A
C925        C930   1.401       .  A
C926        H931   1.084       .  S
C926        C927   1.417       .  A
C927        C928   1.438       .  A
C927        C934   1.444       .  S
C928        C929   1.423       .  A
C929        H932   1.068       .  S
C929        C930   1.387       .  A
C930        C933   1.450       .  S
C933        N935   1.157       .  T
C934        N936   1.157       .  T
C937        C938   1.402   1_545  A
C937        C942   1.409       .  A
C938        H943   1.086       .  S
C938        C939   1.396       .  A
C939        C940   1.425       .  A
C939        C946   1.443       .  S
C940        C941   1.420   1_565  A
C941        H944   1.083       .  S
C941        C942   1.401       .  A
C942        C945   1.444       .  S
C945        N947   1.157       .  T
C946        N948   1.158       .  T
C949        C950   1.413   1_565  A
C949        C954   1.432       .  A
C950        H955   1.080       .  S
C950        C951   1.395       .  A
C951        C952   1.417   1_545  A
C951        C958   1.446       .  S
C952        C953   1.400       .  A
C953        H956   1.085       .  S
C953        C954   1.406       .  A
C954        C957   1.441       .  S
C957        N959   1.157       .  T
C958        N960   1.157       .  T
C961        C962   1.401   1_554  A
C961        C966   1.392       .  A
C962        H967   1.085       .  S
C962        C963   1.411       .  A
C963        C964   1.428       .  A
C963        C970   1.440       .  S
C964        C965   1.432   1_556  A
C965        H968   1.081       .  S
C965        C966   1.389       .  A
C966        C969   1.447       .  S
C969        N971   1.157       .  T
C970        N972   1.157       .  T
C973        C974   1.424       .  A
C973        C978   1.426       .  A
C974        H979   1.084       .  S
C974        C975   1.389       .  A
C975        C976   1.397       .  A
C975        C982   1.445       .  S
C976        C977   1.404       .  A
C977        H980   1.085       .  S
C977        C978   1.411       .  A
C978        C981   1.441   1_556  S
C981        N983   1.158       .  T
C982        N984   1.157       .  T
C985        C986   1.415       .  A
C985        C990   1.439       .  A
C986        H991   1.080       .  S
C986        C987   1.409       .  A
C987        C988   1.408       .  A
C987        C994   1.443       .  S
C988        C989   1.386       .  A
C989        H992   1.086       .  S
C989        C990   1.389       .  A
C990        C993   1.446       .  S
C993        N995   1.157       .  T
C994        N996   1.157       .  T
C997        C998   1.390       .  A
C997       C1002   1.410       .  A
C998       H1003   1.087       .  S
C998        C999   1.389       .  A
C999       C1000   1.441       .  A
C999       C1006   1.450       .  S
C1000      C1001   1.416       .  A
C1001      H1004   1.079       .  S
C1001      C1002   1.412       .  A
C1002      C1005   1.443       .  S
C1005      N1007   1.157       .  T
C1006      N1008   1.157       .  T
C1009      C1010   1.428       .  A
C1009      C1014   1.432       .  A
C1010      H1015   1.081       .  S
C1010      C1011   1.385       .  A
C1011      C1012   1.390       .  A
C1011      C1018   1.446       .  S
C1012      C1013   1.400       .  A
C1013      H1016   1.086       .  S
C1013      C1014   1.410       .  A
C1014      C1017   1.437       .  S
C1017      N1019   1.158       .  T
C1018      N1020   1.157       .  T
C1021      C1022   1.410       .  A
C1021      C1026   1.417       .  A
C1022      H1027   1.084       .  S
C1022      C1023   1.414       .  A
C1023      C1024   1.427       .  A
C1023      C1030   1.443       .  S
C1024      C1025   1.416       .  A
C1025      H1028   1.080       .  S
C1025      C1026   1.396       .  A
C1026      C1029   1.447       .  S
C1029      N1031   1.158       .  T
C1030      N1032   1.157   1_545  T
C1033      C1034   1.408       .  A
C1033      C1038   1.397       .  A
C1034      H1039   1.085       .  S
C1034      C1035   1.416       .  A
C1035      C1036   1.424       .  A
C1035      C1042   1.440   1_554  S
C1036      C1037   1.424       .  A
C1037      H1040   1.081       .  S
C1037      C1038   1.386       .  A
C1038      C1041   1.447       .  S
C1041      N1043   1.157       .  T
C1042      N1044   1.158       .  T
C1045      C1046   1.419   1_655  A
C1045      C1050   1.449       .  A
C1046      H1051   1.082       .  S
C1046      C1047   1.410       .  A
C1047      C1048   1.407   1_455  A
C1047      C1054   1.443       .  S
C1048      C1049   1.385       .  A
C1049      H1052   1.087       .  S
C1049      C1050   1.397       .  A
C1050      C1053   1.446       .  S
C1053      N1055   1.158       .  T
C1054      N1056   1.157       .  T
C1057      C1058   1.418   1_455  A
C1057      C1062   1.438       .  A
C1058      H1063   1.081       .  S
C1058      C1059   1.415       .  A
C1059      C1060   1.410   1_655  A
C1059      C1066   1.442       .  S
C1060      C1061   1.385       .  A
C1061      H1064   1.087       .  S
C1061      C1062   1.388       .  A
C1062      C1065   1.444       .  S
C1065      N1067   1.157       .  T
C1066      N1068   1.157       .  T
C1069      C1070   1.426       .  A
C1069      C1074   1.426       .  A
C1070      H1075   1.082       .  S
C1070      C1071   1.387       .  A
C1071      C1072   1.405       .  A
C1071      C1078   1.448       .  S
C1072      C1073   1.411       .  A
C1073      H1076   1.084       .  S
C1073      C1074   1.420       .  A
C1074      C1077   1.441       .  S
C1077      N1079   1.157   1_455  T
C1078      N1080   1.158       .  T
C1081      C1082   1.422       .  A
C1081      C1086   1.448   1_565  A
C1082      H1087   1.084       .  S
C1082      C1083   1.415       .  A
C1083      C1084   1.414       .  A
C1083      C1090   1.442       .  S
C1084      C1085   1.391   1_565  A
C1085      H1088   1.087       .  S
C1085      C1086   1.390       .  A
C1086      C1089   1.446       .  S
C1089      N1091   1.158       .  T
C1090      N1092   1.157       .  T
C1093      C1094   1.417       .  A
C1093      C1098   1.438       .  A
C1094      H1099   1.080       .  S
C1094      C1095   1.414       .  A
C1095      C1096   1.410       .  A
C1095      C1102   1.442       .  S
C1096      C1097   1.387       .  A
C1097      H1100   1.087       .  S
C1097      C1098   1.390       .  A
C1098      C1101   1.445       .  S
C1101      N1103   1.157       .  T
C1102      N1104   1.157   1_655  T
C1105      C1106   1.423       .  A
C1105      C1110   1.426       .  A
C1106      H1111   1.085       .  S
C1106      C1107   1.386       .  A
C1107      C1108   1.406       .  A
C1107      C1114   1.447       .  S
C1108      C1109   1.407       .  A
C1109      H1112   1.085       .  S
C1109      C1110   1.409       .  A
C1110      C1113   1.441       .  S
C1113      N1115   1.158   1_545  T
C1114      N1116   1.157       .  T
C1117      C1118   1.409       .  A
C1117      C1122   1.401       .  A
C1118      H1123   1.085       .  S
C1118      C1119   1.415       .  A
C1119      C1120   1.427       .  A
C1119      C1126   1.439       .  S
C1120      C1121   1.427       .  A
C1121      H1124   1.084       .  S
C1121      C1122   1.391       .  A
C1122      C1125   1.446       .  S
C1125      N1127   1.157       .  T
C1126      N1128   1.158   1_655  T
C1129      C1130   1.410       .  A
C1129      C1134   1.444       .  A
C1130      H1135   1.068       .  S
C1130      C1131   1.404       .  A
C1131      C1132   1.406       .  A
C1131      C1138   1.444       .  S
C1132      C1133   1.383       .  A
C1133      H1136   1.087       .  S
C1133      C1134   1.388       .  A
C1134      C1137   1.447       .  S
C1137      N1139   1.158       .  T
C1138      N1140   1.157       .  T
C1141      C1142   1.431   1_655  A
C1141      C1146   1.430       .  A
C1142      H1147   1.079       .  S
C1142      C1143   1.392       .  A
C1143      C1144   1.393       .  A
C1143      C1150   1.446       .  S
C1144      C1145   1.399   1_455  A
C1145      H1148   1.084       .  S
C1145      C1146   1.409       .  A
C1146      C1149   1.440       .  S
C1149      N1151   1.157       .  T
C1150      N1152   1.157       .  T
C1153      C1154   1.392       .  A
C1153      C1158   1.410       .  A
C1154      H1159   1.086       .  S
C1154      C1155   1.389       .  A
C1155      C1156   1.436       .  A
C1155      C1162   1.447       .  S
C1156      C1157   1.415       .  A
C1157      H1160   1.079   1_655  S
C1157      C1158   1.409       .  A
C1158      C1161   1.443   1_655  S
C1161      N1163   1.157   1_556  T
C1162      N1164   1.158       .  T
C1165      C1166   1.416       .  A
C1165      C1170   1.435       .  A
C1166      H1171   1.085       .  S
C1166      C1167   1.414       .  A
C1167      C1168   1.414       .  A
C1167      C1174   1.442       .  S
C1168      C1169   1.391       .  A
C1169      H1172   1.090       .  S
C1169      C1170   1.386       .  A
C1170      C1173   1.447       .  S
C1173      N1175   1.158       .  T
C1174      N1176   1.157       .  T
C1177      C1178   1.420       .  A
C1177      C1182   1.444       .  A
C1178      H1183   1.083       .  S
C1178      C1179   1.415       .  A
C1179      C1180   1.416       .  A
C1179      C1186   1.443       .  S
C1180      C1181   1.394       .  A
C1181      H1184   1.086       .  S
C1181      C1182   1.391       .  A
C1182      C1185   1.446       .  S
C1185      N1187   1.157       .  T
C1186      N1188   1.157       .  T
C1189      C1190   1.405       .  A
C1189      C1194   1.394       .  A
C1190      H1195   1.084       .  S
C1190      C1191   1.415       .  A
C1191      C1192   1.431       .  A
C1191      C1198   1.444       .  S
C1192      C1193   1.434       .  A
C1193      H1196   1.075       .  S
C1193      C1194   1.392       .  A
C1194      C1197   1.448       .  S
C1197      N1199   1.157       .  T
C1198      N1200   1.157       .  T
C1201      C1202   1.423       .  A
C1201      C1206   1.444       .  A
C1202      H1207   1.084       .  S
C1202      C1203   1.417       .  A
C1203      C1204   1.411       .  A
C1203      C1210   1.442       .  S
C1204      C1205   1.395       .  A
C1205      H1208   1.087       .  S
C1205      C1206   1.392       .  A
C1206      C1209   1.447       .  S
C1209      N1211   1.158       .  T
C1210      N1212   1.157       .  T
C1213      C1214   1.415       .  A
C1213      C1218   1.438       .  A
C1214      H1219   1.081       .  S
C1214      C1215   1.412       .  A
C1215      C1216   1.411       .  A
C1215      C1222   1.443       .  S
C1216      C1217   1.388       .  A
C1217      H1220   1.086       .  S
C1217      C1218   1.390       .  A
C1218      C1221   1.446       .  S
C1221      N1223   1.157       .  T
C1222      N1224   1.157       .  T
C1225      C1226   1.411       .  A
C1225      C1230   1.439       .  A
C1226      H1231   1.080       .  S
C1226      C1227   1.409       .  A
C1227      C1228   1.417       .  A
C1227      C1234   1.443       .  S
C1228      C1229   1.393       .  A
C1229      H1232   1.086       .  S
C1229      C1230   1.394       .  A
C1230      C1233   1.446       .  S
C1233      N1235   1.158       .  T
C1234      N1236   1.157       .  T
C1237      C1238   1.413       .  A
C1237      C1242   1.437       .  A
C1238      H1243   1.078       .  S
C1238      C1239   1.404       .  A
C1239      C1240   1.411       .  A
C1239      C1246   1.444       .  S
C1240      C1241   1.390       .  A
C1241      H1244   1.086       .  S
C1241      C1242   1.387       .  A
C1242      C1245   1.447       .  S
C1245      N1247   1.158       .  T
C1246      N1248   1.157       .  T
C1249      C1250   1.418       .  A
C1249      C1254   1.445   1_554  A
C1250      H1255   1.083       .  S
C1250      C1251   1.416       .  A
C1251      C1252   1.416       .  A
C1251      C1258   1.441       .  S
C1252      C1253   1.395   1_554  A
C1253      H1256   1.086       .  S
C1253      C1254   1.393       .  A
C1254      C1257   1.447       .  S
C1257      N1259   1.158       .  T
C1258      N1260   1.157       .  T
C1261      C1262   1.390       .  A
C1261      C1266   1.416       .  A
C1262      H1267   1.086       .  S
C1262      C1263   1.389       .  A
C1263      C1264   1.438   1_556  A
C1263      C1270   1.447   1_556  S
C1264      C1265   1.413   1_554  A
C1265      H1268   1.080   1_556  S
C1265      C1266   1.412       .  A
C1266      C1269   1.443       .  S
C1269      N1271   1.157   1_565  T
C1270      N1272   1.158       .  T
C1273      C1274   1.400       .  A
C1273      C1278   1.394       .  A
C1274      H1279   1.085       .  S
C1274      C1275   1.409       .  A
C1275      C1276   1.428       .  A
C1275      C1282   1.441       .  S
C1276      C1277   1.429       .  A
C1277      H1280   1.081       .  S
C1277      C1278   1.390       .  A
C1278      C1281   1.446       .  S
C1281      N1283   1.157       .  T
C1282      N1284   1.157       .  T
C1285      C1286   1.401       .  A
C1285      C1290   1.407       .  A
C1286      H1291   1.085       .  S
C1286      C1287   1.405       .  A
C1287      C1288   1.430       .  A
C1287      C1294   1.442       .  S
C1288      C1289   1.416       .  A
C1289      H1292   1.080       .  S
C1289      C1290   1.399       .  A
C1290      C1293   1.445       .  S
C1293      N1295   1.157       .  T
C1294      N1296   1.157       .  T
C1297      C1298   1.423       .  A
C1297      C1302   1.434       .  A
C1298      H1303   1.075       .  S
C1298      C1299   1.389       .  A
C1299      C1300   1.407       .  A
C1299      C1306   1.450       .  S
C1300      C1301   1.407       .  A
C1301      H1304   1.084       .  S
C1301      C1302   1.419       .  A
C1302      C1305   1.443       .  S
C1305      N1307   1.157       .  T
C1306      N1308   1.158       .  T
C1309      C1310   1.413       .  A
C1309      C1314   1.437       .  A
C1310      H1315   1.078       .  S
C1310      C1311   1.413       .  A
C1311      C1312   1.416       .  A
C1311      C1318   1.442       .  S
C1312      C1313   1.392       .  A
C1313      H1316   1.086       .  S
C1313      C1314   1.391       .  A
C1314      C1317   1.447       .  S
C1317      N1319   1.158       .  T
C1318      N1320   1.157       .  T
C1321      C1322   1.417       .  A
C1321      C1326   1.437   1_455  A
C1322      H1327   1.079       .  S
C1322      C1323   1.412       .  A
C1323      C1324   1.411   1_455  A
C1323      C1330   1.442       .  S
C1324      C1325   1.389       .  A
C1325      H1328   1.087       .  S
C1325      C1326   1.387       .  A
C1326      C1329   1.447       .  S
C1329      N1331   1.158       .  T
C1330      N1332   1.157   1_554  T
C1333      C1334   1.382       .  A
C1333      C1338   1.404   1_455  A
C1334      H1339   1.087       .  S
C1334      C1335   1.393       .  A
C1335      C1336   1.448       .  A
C1335      C1342   1.445       .  S
C1336      C1337   1.419   1_455  A
C1337      H1340   1.080       .  S
C1337      C1338   1.406       .  A
C1338      C1341   1.444       .  S
C1341      N1343   1.157       .  T
C1342      N1344   1.158       .  T
C1345      C1346   1.430       .  A
C1345      C1350   1.431       .  A
C1346      H1351   1.076       .  S
C1346      C1347   1.387       .  A
C1347      C1348   1.392       .  A
C1347      C1354   1.448       .  S
C1348      C1349   1.403       .  A
C1349      H1352   1.085       .  S
C1349      C1350   1.412       .  A
C1350      C1353   1.444       .  S
C1353      N1355   1.158       .  T
C1354      N1356   1.157       .  T
C1357      C1358   1.409       .  A
C1357      C1362   1.403       .  A
C1358      H1363   1.084       .  S
C1358      C1359   1.416       .  A
C1359      C1360   1.428       .  A
C1359      C1366   1.443       .  S
C1360      C1361   1.427       .  A
C1361      H1364   1.076       .  S
C1361      C1362   1.383       .  A
C1362      C1365   1.451       .  S
C1365      N1367   1.158       .  T
C1366      N1368   1.157       .  T
C1369      C1370   1.391       .  A
C1369      C1374   1.413       .  A
C1370      H1375   1.086       .  S
C1370      C1371   1.388       .  A
C1371      C1372   1.436       .  A
C1371      C1378   1.448       .  S
C1372      C1373   1.412       .  A
C1373      H1376   1.080       .  S
C1373      C1374   1.406       .  A
C1374      C1377   1.443       .  S
C1377      N1379   1.157       .  T
C1378      N1380   1.157       .  T
C1381      C1382   1.409       .  A
C1381      C1386   1.403       .  A
C1382      H1387   1.085       .  S
C1382      C1383   1.412       .  A
C1383      C1384   1.424       .  A
C1383      C1390   1.440       .  S
C1384      C1385   1.426       .  A
C1385      H1388   1.083       .  S
C1385      C1386   1.382       .  A
C1386      C1389   1.448       .  S
C1389      N1391   1.157       .  T
C1390      N1392   1.158       .  T
C1393      C1394   1.413       .  A
C1393      C1398   1.413       .  A
C1394      H1399   1.084       .  S
C1394      C1395   1.426       .  A
C1395      C1396   1.429       .  A
C1395      C1402   1.442       .  S
C1396      C1397   1.424       .  A
C1397      H1400   1.079       .  S
C1397      C1398   1.390       .  A
C1398      C1401   1.451       .  S
C1401      N1403   1.158       .  T
C1402      N1404   1.157       .  T
C1405      C1406   1.414       .  A
C1405      C1410   1.440       .  A
C1406      H1411   1.081       .  S
C1406      C1407   1.416       .  A
C1407      C1408   1.415       .  A
C1407      C1414   1.442       .  S
C1408      C1409   1.389       .  A
C1409      H1412   1.087       .  S
C1409      C1410   1.387       .  A
C1410      C1413   1.446       .  S
C1413      N1415   1.157       .  T
C1414      N1416   1.157       .  T
C1417      C1418   1.432       .  A
C1417      C1422   1.432       .  A
C1418      H1423   1.077       .  S
C1418      C1419   1.392       .  A
C1419      C1420   1.393       .  A
C1419      C1426   1.447       .  S
C1420      C1421   1.402       .  A
C1421      H1424   1.085       .  S
C1421      C1422   1.413       .  A
C1422      C1425   1.443       .  S
C1425      N1427   1.158       .  T
C1426      N1428   1.157       .  T
C1429      C1430   1.402       .  A
C1429      C1434   1.392       .  A
C1430      H1435   1.085       .  S
C1430      C1431   1.415       .  A
C1431      C1432   1.433       .  A
C1431      C1438   1.442       .  S
C1432      C1433   1.434       .  A
C1433      H1436   1.077       .  S
C1433      C1434   1.392       .  A
C1434      C1437   1.447       .  S
C1437      N1439   1.157       .  T
C1438      N1440   1.157       .  T
C1441      C1442   1.422       .  A
C1441      C1446   1.448       .  A
C1442      H1447   1.084       .  S
C1442      C1443   1.419       .  A
C1443      C1444   1.414       .  A
C1443      C1450   1.442       .  S
C1444      C1445   1.390       .  A
C1445      H1448   1.087       .  S
C1445      C1446   1.386       .  A
C1446      C1449   1.448       .  S
C1449      N1451   1.158       .  T
C1450      N1452   1.157       .  T
C1453      C1454   1.414       .  A
C1453      C1458   1.438       .  A
C1454      H1459   1.081       .  S
C1454      C1455   1.415       .  A
C1455      C1456   1.417       .  A
C1455      C1462   1.443       .  S
C1456      C1457   1.391       .  A
C1457      H1460   1.086       .  S
C1457      C1458   1.392       .  A
C1458      C1461   1.445       .  S
C1461      N1463   1.157       .  T
C1462      N1464   1.157       .  T
C1465      C1466   1.421       .  A
C1465      C1470   1.448       .  A
C1466      H1471   1.082       .  S
C1466      C1467   1.403       .  A
C1467      C1468   1.402       .  A
C1467      C1474   1.443       .  S
C1468      C1469   1.383       .  A
C1469      H1472   1.088       .  S
C1469      C1470   1.394       .  A
C1470      C1473   1.444       .  S
C1473      N1475   1.158       .  T
C1474      N1476   1.157       .  T
C1477      C1478   1.406       .  A
C1477      C1482   1.405       .  A
C1478      H1483   1.085       .  S
C1478      C1479   1.413       .  A
C1479      C1480   1.430       .  A
C1479      C1486   1.440       .  S
C1480      C1481   1.422       .  A
C1481      H1484   1.084       .  S
C1481      C1482   1.389       .  A
C1482      C1485   1.447       .  S
C1485      N1487   1.157       .  T
C1486      N1488   1.158       .  T
C1489      C1490   1.426       .  A
C1489      C1494   1.430       .  A
C1490      H1495   1.080       .  S
C1490      C1491   1.388       .  A
C1491      C1492   1.404       .  A
C1491      C1498   1.447       .  S
C1492      C1493   1.409       .  A
C1493      H1496   1.084       .  S
C1493      C1494   1.420       .  A
C1494      C1497   1.442       .  S
C1497      N1499   1.157       .  T
C1498      N1500   1.157       .  T
C1501      C1502   1.395       .  A
C1501      C1506   1.413       .  A
C1502      H1507   1.086       .  S
C1502      C1503   1.392       .  A
C1503      C1504   1.435       .  A
C1503      C1510   1.445       .  S
C1504      C1505   1.415       .  A
C1505      H1508   1.080       .  S
C1505      C1506   1.413       .  A
C1506      C1509   1.442       .  S
C1509      N1511   1.157       .  T
C1510      N1512   1.157       .  T
C1513      C1514   1.427       .  A
C1513      C1518   1.429       .  A
C1514      H1519   1.078       .  S
C1514      C1515   1.395       .  A
C1515      C1516   1.410       .  A
C1515      C1522   1.448       .  S
C1516      C1517   1.410       .  A
C1517      H1520   1.084       .  S
C1517      C1518   1.415       .  A
C1518      C1521   1.443       .  S
C1521      N1523   1.157   1_554  T
C1522      N1524   1.158       .  T
C1525      C1526   1.429       .  A
C1525      C1530   1.432   1_556  A
C1526      H1531   1.077       .  S
C1526      C1527   1.391       .  A
C1527      C1528   1.393       .  A
C1527      C1534   1.446       .  S
C1528      C1529   1.402   1_556  A
C1529      H1532   1.085       .  S
C1529      C1530   1.413       .  A
C1530      C1533   1.444       .  S
C1533      N1535   1.158       .  T
C1534      N1536   1.157       .  T
C1537      C1538   1.422       .  A
C1537      C1542   1.428       .  A
C1538      H1543   1.084   1_554  S
C1538      C1539   1.394       .  A
C1539      C1540   1.409       .  A
C1539      C1546   1.446       .  S
C1540      C1541   1.407       .  A
C1541      H1544   1.085       .  S
C1541      C1542   1.414       .  A
C1542      C1545   1.440   1_554  S
C1545      N1547   1.158       .  T
C1546      N1548   1.158       .  T
C1549      C1550   1.417       .  A
C1549      C1554   1.434       .  A
C1550      H1555   1.078       .  S
C1550      C1551   1.405       .  A
C1551      C1552   1.415       .  A
C1551      C1558   1.445       .  S
C1552      C1553   1.403       .  A
C1553      H1556   1.085       .  S
C1553      C1554   1.409       .  A
C1554      C1557   1.442       .  S
C1557      N1559   1.157   1_565  T
C1558      N1560   1.157       .  T
C1561      C1562   1.419       .  A
C1561      C1566   1.428       .  A
C1562      H1567   1.084       .  S
C1562      C1563   1.406       .  A
C1563      C1564   1.414       .  A
C1563      C1570   1.443       .  S
C1564      C1565   1.404       .  A
C1565      H1568   1.085       .  S
C1565      C1566   1.400       .  A
C1566      C1569   1.441       .  S
C1569      N1571   1.158       .  T
C1570      N1572   1.157       .  T
C1573      C1574   1.420   1_545  A
C1573      C1578   1.434       .  A
C1574      H1579   1.084       .  S
C1574      C1575   1.417       .  A
C1575      C1576   1.416       .  A
C1575      C1582   1.442       .  S
C1576      C1577   1.396   1_565  A
C1577      H1580   1.086       .  S
C1577      C1578   1.387       .  A
C1578      C1581   1.445       .  S
C1581      N1583   1.158       .  T
C1582      N1584   1.157       .  T
C1585      C1586   1.418       .  A
C1585      C1590   1.431   1_565  A
C1586      H1591   1.078       .  S
C1586      C1587   1.399       .  A
C1587      C1588   1.411   1_565  A
C1587      C1594   1.446       .  S
C1588      C1589   1.400       .  A
C1589      H1592   1.085       .  S
C1589      C1590   1.403       .  A
C1590      C1593   1.437       .  S
C1593      N1595   1.157       .  T
C1594      N1596   1.157       .  T
C1597      C1598   1.428       .  A
C1597      C1602   1.431       .  A
C1598      H1603   1.073       .  S
C1598      C1599   1.393       .  A
C1599      C1600   1.398       .  A
C1599      C1606   1.446       .  S
C1600      C1601   1.403       .  A
C1601      H1604   1.085       .  S
C1601      C1602   1.411       .  A
C1602      C1605   1.444       .  S
C1605      N1607   1.157       .  T
C1606      N1608   1.157       .  T
C1609      C1610   1.424       .  A
C1609      C1614   1.433       .  A
C1610      H1615   1.074       .  S
C1610      C1611   1.389       .  A
C1611      C1612   1.406       .  A
C1611      C1618   1.450       .  S
C1612      C1613   1.407       .  A
C1613      H1616   1.084       .  S
C1613      C1614   1.417       .  A
C1614      C1617   1.444       .  S
C1617      N1619   1.157       .  T
C1618      N1620   1.158       .  T
C1621      C1622   1.428       .  A
C1621      C1626   1.427       .  A
C1622      H1627   1.084       .  S
C1622      C1623   1.388       .  A
C1623      C1624   1.395       .  A
C1623      C1630   1.446       .  S
C1624      C1625   1.403       .  A
C1625      H1628   1.085       .  S
C1625      C1626   1.411       .  A
C1626      C1629   1.440       .  S
C1629      N1631   1.158       .  T
C1630      N1632   1.157       .  T
C1633      C1634   1.430       .  A
C1633      C1638   1.430   1_556  A
C1634      H1639   1.080       .  S
C1634      C1635   1.392       .  A
C1635      C1636   1.393       .  A
C1635      C1642   1.446       .  S
C1636      C1637   1.401   1_556  A
C1637      H1640   1.085       .  S
C1637      C1638   1.410       .  A
C1638      C1641   1.442       .  S
C1641      N1643   1.158       .  T
C1642      N1644   1.157       .  T
C1645      C1646   1.416       .  A
C1645      C1650   1.437   1_556  A
C1646      H1651   1.079       .  S
C1646      C1647   1.413       .  A
C1647      C1648   1.411       .  A
C1647      C1654   1.443       .  S
C1648      C1649   1.388   1_556  A
C1649      H1652   1.086       .  S
C1649      C1650   1.392       .  A
C1650      C1653   1.446       .  S
C1653      N1655   1.157       .  T
C1654      N1656   1.157       .  T
C1657      C1658   1.407       .  A
C1657      C1662   1.410       .  A
C1658      H1663   1.084       .  S
C1658      C1659   1.419       .  A
C1659      C1660   1.432       .  A
C1659      C1666   1.441       .  S
C1660      C1661   1.422       .  A
C1661      H1664   1.080       .  S
C1661      C1662   1.390       .  A
C1662      C1665   1.450       .  S
C1665      N1667   1.158       .  T
C1666      N1668   1.158   1_554  T
C1669      C1670   1.400       .  A
C1669      C1674   1.397       .  A
C1670      H1675   1.085       .  S
C1670      C1671   1.407       .  A
C1671      C1672   1.433       .  A
C1671      C1678   1.443       .  S
C1672      C1673   1.431       .  A
C1673      H1676   1.077       .  S
C1673      C1674   1.395       .  A
C1674      C1677   1.447       .  S
C1677      N1679   1.157       .  T
C1678      N1680   1.157       .  T
C1681      C1682   1.386       .  A
C1681      C1686   1.408       .  A
C1682      H1687   1.087       .  S
C1682      C1683   1.385       .  A
C1683      C1684   1.437       .  A
C1683      C1690   1.447       .  S
C1684      C1685   1.416       .  A
C1685      H1688   1.080       .  S
C1685      C1686   1.407       .  A
C1686      C1689   1.444       .  S
C1689      N1691   1.157       .  T
C1690      N1692   1.157       .  T
C1693      C1694   1.405       .  A
C1693      C1698   1.396       .  A
C1694      H1699   1.085       .  S
C1694      C1695   1.414       .  A
C1695      C1696   1.428       .  A
C1695      C1702   1.440       .  S
C1696      C1697   1.426       .  A
C1697      H1700   1.084       .  S
C1697      C1698   1.386       .  A
C1698      C1701   1.447       .  S
C1701      N1703   1.157       .  T
C1702      N1704   1.158       .  T
C1705      C1706   1.409       .  A
C1705      C1710   1.400       .  A
C1706      H1711   1.084       .  S
C1706      C1707   1.419       .  A
C1707      C1708   1.427       .  A
C1707      C1714   1.439       .  S
C1708      C1709   1.429       .  A
C1709      H1712   1.080       .  S
C1709      C1710   1.382       .  A
C1710      C1713   1.449       .  S
C1713      N1715   1.158       .  T
C1714      N1716   1.157   1_655  T
C1717      C1718   1.419       .  A
C1717      C1722   1.430       .  A
C1718      H1723   1.078       .  S
C1718      C1719   1.400       .  A
C1719      C1720   1.402       .  A
C1719      C1726   1.443       .  S
C1720      C1721   1.399       .  A
C1721      H1724   1.085       .  S
C1721      C1722   1.402       .  A
C1722      C1725   1.443       .  S
C1725      N1727   1.158       .  T
C1726      N1728   1.157       .  T
C1729      C1730   1.423       .  A
C1729      C1734   1.425       .  A
C1730      H1735   1.078       .  S
C1730      C1731   1.398       .  A
C1731      C1732   1.403       .  A
C1731      C1738   1.445       .  S
C1732      C1733   1.405       .  A
C1733      H1736   1.085       .  S
C1733      C1734   1.406       .  A
C1734      C1737   1.444       .  S
C1737      N1739   1.157       .  T
C1738      N1740   1.157       .  T
C1741      C1742   1.421       .  A
C1741      C1746   1.428       .  A
C1742      H1747   1.081       .  S
C1742      C1743   1.410       .  A
C1743      C1744   1.411       .  A
C1743      C1750   1.444       .  S
C1744      C1745   1.400       .  A
C1745      H1748   1.085       .  S
C1745      C1746   1.406       .  A
C1746      C1749   1.439       .  S
C1749      N1751   1.157       .  T
C1750      N1752   1.157       .  T
C1753      C1754   1.426       .  A
C1753      C1758   1.426       .  A
C1754      H1759   1.082       .  S
C1754      C1755   1.394       .  A
C1755      C1756   1.408       .  A
C1755      C1762   1.447       .  S
C1756      C1757   1.411       .  A
C1757      H1760   1.084       .  S
C1757      C1758   1.417       .  A
C1758      C1761   1.439       .  S
C1761      N1763   1.157       .  T
C1762      N1764   1.158       .  T
C1765      C1766   1.413       .  A
C1765      C1770   1.438       .  A
C1766      H1771   1.080       .  S
C1766      C1767   1.411       .  A
C1767      C1768   1.416       .  A
C1767      C1774   1.443       .  S
C1768      C1769   1.392       .  A
C1769      H1772   1.086       .  S
C1769      C1770   1.392       .  A
C1770      C1773   1.445       .  S
C1773      N1775   1.157       .  T
C1774      N1776   1.157       .  T
C1777      C1778   1.406       .  A
C1777      C1782   1.393       .  A
C1778      H1783   1.085       .  S
C1778      C1779   1.416       .  A
C1779      C1780   1.429       .  A
C1779      C1786   1.439       .  S
C1780      C1781   1.426       .  A
C1781      H1784   1.083       .  S
C1781      C1782   1.386       .  A
C1782      C1785   1.446       .  S
C1785      N1787   1.157       .  T
C1786      N1788   1.158       .  T
C1789      C1790   1.405       .  A
C1789      C1794   1.399       .  A
C1790      H1795   1.085       .  S
C1790      C1791   1.417       .  A
C1791      C1792   1.431       .  A
C1791      C1798   1.441       .  S
C1792      C1793   1.431       .  A
C1793      H1796   1.079       .  S
C1793      C1794   1.395       .  A
C1794      C1797   1.447       .  S
C1797      N1799   1.157       .  T
C1798      N1800   1.157       .  T
C1801      C1802   1.409       .  A
C1801      C1806   1.398       .  A
C1802      H1807   1.085       .  S
C1802      C1803   1.417       .  A
C1803      C1804   1.426       .  A
C1803      C1810   1.440       .  S
C1804      C1805   1.427       .  A
C1805      H1808   1.084       .  S
C1805      C1806   1.386       .  A
C1806      C1809   1.447       .  S
C1809      N1811   1.157       .  T
C1810      N1812   1.158       .  T
C1813      C1814   1.395       .  A
C1813      C1818   1.411       .  A
C1814      H1819   1.086       .  S
C1814      C1815   1.388       .  A
C1815      C1816   1.442       .  A
C1815      C1822   1.447       .  S
C1816      C1817   1.422       .  A
C1817      H1820   1.081       .  S
C1817      C1818   1.417       .  A
C1818      C1821   1.441       .  S
C1821      N1823   1.157       .  T
C1822      N1824   1.158       .  T
C1825      C1826   1.391       .  A
C1825      C1830   1.412       .  A
C1826      H1831   1.086       .  S
C1826      C1827   1.397       .  A
C1827      C1828   1.436       .  A
C1827      C1834   1.444       .  S
C1828      C1829   1.416       .  A
C1829      H1832   1.081       .  S
C1829      C1830   1.414       .  A
C1830      C1833   1.442       .  S
C1833      N1835   1.157       .  T
C1834      N1836   1.157       .  T
C1837      C1838   1.424       .  A
C1837      C1842   1.437   1_545  A
C1838      H1843   1.076       .  S
C1838      C1839   1.394       .  A
C1839      C1840   1.407   1_545  A
C1839      C1846   1.447       .  S
C1840      C1841   1.405       .  A
C1841      H1844   1.084       .  S
C1841      C1842   1.414       .  A
C1842      C1845   1.446       .  S
C1845      N1847   1.157       .  T
C1846      N1848   1.157       .  T
C1849      C1850   1.420       .  A
C1849      C1854   1.432       .  A
C1850      H1855   1.079       .  S
C1850      C1851   1.393       .  A
C1851      C1852   1.395       .  A
C1851      C1858   1.445       .  S
C1852      C1853   1.402       .  A
C1853      H1856   1.085       .  S
C1853      C1854   1.413       .  A
C1854      C1857   1.441       .  S
C1857      N1859   1.158       .  T
C1858      N1860   1.157       .  T
C1861      C1862   1.421       .  A
C1861      C1866   1.428       .  A
C1862      H1867   1.084       .  S
C1862      C1863   1.390       .  A
C1863      C1864   1.403       .  A
C1863      C1870   1.446       .  S
C1864      C1865   1.403       .  A
C1865      H1868   1.085       .  S
C1865      C1866   1.408       .  A
C1866      C1869   1.441       .  S
C1869      N1871   1.158       .  T
C1870      N1872   1.157       .  T
C1873      C1874   1.386       .  A
C1873      C1878   1.406       .  A
C1874      H1879   1.087       .  S
C1874      C1875   1.398       .  A
C1875      C1876   1.449       .  A
C1875      C1882   1.445       .  S
C1876      C1877   1.417       .  A
C1877      H1880   1.080       .  S
C1877      C1878   1.406       .  A
C1878      C1881   1.444       .  S
C1881      N1883   1.157       .  T
C1882      N1884   1.158       .  T
C1885      C1886   1.394       .  A
C1885      C1890   1.412       .  A
C1886      H1891   1.086       .  S
C1886      C1887   1.398       .  A
C1887      C1888   1.433       .  A
C1887      C1894   1.442       .  S
C1888      C1889   1.417       .  A
C1889      H1892   1.084       .  S
C1889      C1890   1.408       .  A
C1890      C1893   1.443       .  S
C1893      N1895   1.157       .  T
C1894      N1896   1.158       .  T
C1897      C1898   1.385       .  A
C1897      C1902   1.410       .  A
C1898      H1903   1.087       .  S
C1898      C1899   1.384       .  A
C1899      C1900   1.438       .  A
C1899      C1906   1.446       .  S
C1900      C1901   1.415       .  A
C1901      H1904   1.081       .  S
C1901      C1902   1.411       .  A
C1902      C1905   1.442       .  S
C1905      N1907   1.157       .  T
C1906      N1908   1.157       .  T
C1909      C1910   1.417       .  A
C1909      C1914   1.427       .  A
C1910      H1915   1.084       .  S
C1910      C1911   1.402       .  A
C1911      C1912   1.418       .  A
C1911      C1918   1.445       .  S
C1912      C1913   1.399       .  A
C1913      H1916   1.085       .  S
C1913      C1914   1.403       .  A
C1914      C1917   1.440       .  S
C1917      N1919   1.158   1_565  T
C1918      N1920   1.157       .  T
C1921      C1922   1.388       .  A
C1921      C1926   1.412       .  A
C1922      H1927   1.087       .  S
C1922      C1923   1.390       .  A
C1923      C1924   1.438       .  A
C1923      C1930   1.447       .  S
C1924      C1925   1.415       .  A
C1925      H1928   1.080       .  S
C1925      C1926   1.415       .  A
C1926      C1929   1.442       .  S
C1929      N1931   1.157       .  T
C1930      N1932   1.158       .  T
C1933      C1934   1.405       .  A
C1933      C1938   1.401       .  A
C1934      H1939   1.086       .  S
C1934      C1935   1.413       .  A
C1935      C1936   1.433       .  A
C1935      C1942   1.445       .  S
C1936      C1937   1.427       .  A
C1937      H1940   1.079       .  S
C1937      C1938   1.394       .  A
C1938      C1941   1.447       .  S
C1941      N1943   1.157       .  T
C1942      N1944   1.158       .  T
