geometry optimzed in LAMMPS
_audit_creation_date              2020-11-30 
_audit_creation_method            'lammps2cif' 
_symmetry_space_group_name_H-M    'P1' 
_symmetry_Int_Tables_number       1 
_symmetry_cell_setting            triclinic 
loop_ 
_symmetry_equiv_pos_as_xyz 
  x,y,z 
_cell_length_a                    41.5790938 
_cell_length_b                    41.57882946010675 
_cell_length_c                    41.57857205351402 
_cell_angle_alpha                 89.99957746150955 
_cell_angle_beta                  90.00061347725095 
_cell_angle_gamma                 89.9998701644944 
loop_ 
_atom_site_label 
_atom_site_type_symbol 
_atom_site_fract_x 
_atom_site_fract_y 
_atom_site_fract_z 
_atom_site_charge 
C1          C  0.97177205  0.01649600  0.00515565     0.03800
C2          C  0.99155904  0.02562580  0.97872779     0.03800
C3          C  0.01811965  0.00596278  0.96973365     0.03800
C4          C  0.02682683  0.97912415  0.98920850     0.03800
C5          C  0.00730240  0.97031700  0.01596987     0.03800
C6          C  0.98056634  0.98982417  0.02472653     0.03800
O7          O  0.02980861  0.18470902  0.85856425    -0.78600
O8          O  0.97045931  0.31490243  0.85650039    -0.78600
O9          O  0.94645368  0.24961775  0.82888416    -0.78600
O10         O  0.05393882  0.24923768  0.82899894    -0.78600
O11         O  0.92522090  0.27264724  0.87040112    -0.78700
O12         O  0.07502031  0.22741509  0.87124369    -0.78600
O13         O  0.00267295  0.29067580  0.82143503    -0.78600
O14         O  0.99764842  0.20794972  0.82277518    -0.78600
C15         C  0.01899935  0.18770217  0.82997002     1.11100
C16         C  0.98133283  0.31114071  0.82801152     1.11000
C17         C  0.92272103  0.26348490  0.84154397     1.11100
C18         C  0.07768077  0.23583192  0.84215647     1.11000
O19         O  0.04144972  0.24834741  0.92826045    -0.78600
O20         O  0.95838421  0.25343560  0.92815182    -0.78700
O21         O  0.97743873  0.17533787  0.88049976    -0.78600
O22         O  0.02268601  0.32498229  0.87836587    -0.78600
O23         O  0.00017209  0.30446154  0.92054010    -0.78600
O24         O  0.99991802  0.19693433  0.92214638    -0.78600
O25         O  0.06512148  0.28001763  0.89231999    -0.78500
O26         O  0.93490670  0.22066207  0.89307934    -0.78600
Co27       Co  0.03319169  0.21722429  0.89458688     1.51500
Co28       Co  0.96691674  0.28349073  0.89352247     1.51700
Co29       Co  0.96697047  0.21674724  0.85669058     1.51600
Co30       Co  0.03321217  0.28288248  0.85575178     1.51500
O31         O  0.00007168  0.25007425  0.87517386    -1.40500
C32         C  0.06177681  0.26960673  0.92101847     1.11000
C33         C  0.93824352  0.23177900  0.92151898     1.11100
C34         C  0.98621559  0.17308185  0.90949890     1.11100
C35         C  0.01396164  0.32794248  0.90732507     1.11000
O36         O  0.85462723  0.02805602  0.18261512    -0.78600
O37         O  0.86105212  0.97102854  0.31415938    -0.78600
O38         O  0.83085325  0.94564508  0.25030014    -0.78600
O39         O  0.82662595  0.05188648  0.24853482    -0.78600
O40         O  0.87390699  0.92580806  0.27166434    -0.78700
O41         O  0.86669818  0.07446461  0.22420302    -0.78600
O42         O  0.82343727  0.00125336  0.29130129    -0.78600
O43         O  0.82117048  0.99529234  0.20814194    -0.78600
C44         C  0.82669317  0.01601074  0.18683611     1.11100
C45         C  0.83205247  0.98082361  0.31194267     1.11000
C46         C  0.84466478  0.92248451  0.26396490     1.11100
C47         C  0.83808141  0.07600431  0.23428725     1.11000
O48         O  0.92614316  0.04433053  0.24320348    -0.78600
O49         O  0.92965399  0.96121279  0.24921876    -0.78700
O50         O  0.87866360  0.97664330  0.17340065    -0.78600
O51         O  0.88109063  0.02435062  0.32214516    -0.78600
O52         O  0.92294952  0.00310485  0.29975196    -0.78600
O53         O  0.91996064  0.00137670  0.19317704    -0.78600
O54         O  0.89053822  0.06683374  0.27603032    -0.78500
O55         O  0.89417143  0.93547990  0.21881129    -0.78600
Co56       Co  0.89163557  0.03376426  0.21370528     1.51500
Co57       Co  0.89629227  0.96849375  0.28080312     1.51700
Co58       Co  0.85658397  0.96616881  0.21590242     1.51600
Co59       Co  0.85584805  0.03320404  0.28120762     1.51500
O60         O  0.87511879  0.00045602  0.24792849    -1.40500
C61         C  0.91880124  0.06486187  0.26422116     1.11000
C62         C  0.92292162  0.94032854  0.22841585     1.11100
C63         C  0.90729404  0.98637279  0.17015674     1.11100
C64         C  0.91034520  0.01633243  0.32385142     1.11000
C65         C  0.02933920  0.01671855  0.50405069     0.03800
C66         C  0.00937852  0.02561926  0.47767395     0.03800
C67         C  0.98263719  0.00593140  0.46924069     0.03800
C68         C  0.97413804  0.97917516  0.48890530     0.03800
C69         C  0.99391528  0.97053219  0.51550898     0.03800
C70         C  0.02070655  0.99015777  0.52384479     0.03800
O71         O  0.02664119  0.81723342  0.64103222    -0.78600
O72         O  0.97244005  0.68312233  0.64166474    -0.78600
O73         O  0.94714544  0.74890864  0.67229670    -0.78600
O74         O  0.05157739  0.75186757  0.67249502    -0.78600
O75         O  0.92606812  0.72463696  0.63126443    -0.78700
O76         O  0.07304208  0.77553316  0.63131816    -0.78600
O77         O  0.00259924  0.70783310  0.67792056    -0.78600
O78         O  0.99624893  0.79291840  0.67736230    -0.78600
C79         C  0.01576690  0.81464505  0.66955905     1.11100
C80         C  0.98295193  0.68615759  0.67027929     1.11000
C81         C  0.92378670  0.73396460  0.66015603     1.11100
C82         C  0.07510897  0.76644709  0.66028834     1.11000
O83         O  0.04224488  0.75293421  0.57293260    -0.78600
O84         O  0.95744803  0.74668474  0.57284663    -0.78700
O85         O  0.97414948  0.82366503  0.61866540    -0.78600
O86         O  0.02503798  0.67650896  0.61969934    -0.78600
O87         O  0.00131595  0.69771829  0.57843846    -0.78600
O88         O  0.99823932  0.80215026  0.57776764    -0.78600
O89         O  0.06668446  0.72286063  0.60945211    -0.78500
O90         O  0.93255312  0.77706371  0.60877184    -0.78600
Co91       Co  0.03187664  0.78397713  0.60614146     1.51500
Co92       Co  0.96745759  0.71600996  0.60640017     1.51700
Co93       Co  0.96550638  0.78247755  0.64392969     1.51600
Co94       Co  0.03350801  0.71792228  0.64451122     1.51500
O95         O  0.99958413  0.75010160  0.62527797    -1.40500
C96         C  0.06398251  0.73344310  0.58081982     1.11000
C97         C  0.93554826  0.76611541  0.58031225     1.11100
C98         C  0.98358553  0.82575839  0.58978405     1.11100
C99         C  0.01596002  0.67427604  0.59073488     1.11000
O100        O  0.18510810  0.85719114  0.03158811    -0.78600
O101        O  0.31648664  0.86021367  0.97378987    -0.78600
O102        O  0.25246009  0.82792440  0.95049627    -0.78600
O103        O  0.25108156  0.83110516  0.05691856    -0.78600
O104        O  0.27369423  0.86963191  0.92781905    -0.78700
O105        O  0.22659038  0.87246947  0.07685714    -0.78600
O106        O  0.29387892  0.82477202  0.00671024    -0.78600
O107        O  0.21074302  0.82157515  0.00125948    -0.78600
C108        C  0.18978727  0.82842423  0.02195294     1.11100
C109        C  0.31447710  0.83198604  0.98570386     1.11000
C110        C  0.26551207  0.84040591  0.92623420     1.11100
C111        C  0.23628898  0.84380358  0.08006637     1.11000
O112        O  0.24527793  0.92995353  0.04192272    -0.78600
O113        O  0.25095055  0.92748355  0.95859364    -0.78700
O114        O  0.17551282  0.87733534  0.97868249    -0.78600
O115        O  0.32414826  0.88414263  0.02559631    -0.78600
O116        O  0.30171320  0.92426330  0.00118388    -0.78600
O117        O  0.19543546  0.92040264  0.99999400    -0.78600
O118        O  0.27799571  0.89634374  0.06729153    -0.78500
O119        O  0.22050342  0.88985585  0.93604667    -0.78600
Co120      Co  0.21600494  0.89462083  0.03434405     1.51500
Co121      Co  0.28284927  0.89498679  0.96865269     1.51700
Co122      Co  0.21802673  0.85475350  0.96950142     1.51600
Co123      Co  0.28347467  0.85931660  0.03623506     1.51500
O124        O  0.25013313  0.87594377  0.00215492    -1.40500
C125        C  0.26610149  0.92433817  0.06309001     1.11000
C126        C  0.23021320  0.91887515  0.93825597     1.11100
C127        C  0.17230276  0.90661905  0.98623997     1.11100
C128        C  0.32573764  0.91275550  0.01554049     1.11000
O129        O  0.00263365  0.79267490  0.17694195    -0.78600
O130        O  0.99627604  0.70745376  0.17764488    -0.78600
O131        O  0.92643294  0.77536938  0.13022353    -0.78600
O132        O  0.07337039  0.72434404  0.13181819    -0.78600
O133        O  0.94736426  0.75163414  0.17165017    -0.78700
O134        O  0.05174370  0.74862091  0.17255492    -0.78600
O135        O  0.02686905  0.68277208  0.14173857    -0.78600
O136        O  0.97277791  0.81703915  0.14020709    -0.78600
C137        C  0.98324214  0.81441872  0.16887827     1.11100
C138        C  0.01591452  0.68568821  0.17020270     1.11000
C139        C  0.92402411  0.76635035  0.15920812     1.11100
C140        C  0.07530668  0.73380111  0.16068295     1.11000
O141        O  0.06716125  0.77672903  0.10921169    -0.78600
O142        O  0.93296543  0.72267068  0.10844736    -0.78700
O143        O  0.00190233  0.80168975  0.07733291    -0.78600
O144        O  0.99877776  0.69733866  0.07817262    -0.78600
O145        O  0.97448075  0.67622715  0.11915312    -0.78600
O146        O  0.02552524  0.82327234  0.11847102    -0.78600
O147        O  0.04284662  0.74622994  0.07297186    -0.78500
O148        O  0.95801185  0.75252118  0.07219523    -0.78600
Co149      Co  0.03379454  0.78216334  0.14394523     1.51500
Co150      Co  0.96575841  0.71765241  0.14385821     1.51700
Co151      Co  0.96792879  0.78365943  0.10540017     1.51600
Co152      Co  0.03231936  0.71564147  0.10649631     1.51500
O153        O  0.99995585  0.74977864  0.12495877    -1.40500
C154        C  0.06445161  0.76591586  0.08067844     1.11000
C155        C  0.93597479  0.73331639  0.07986957     1.11100
C156        C  0.01651667  0.82526134  0.08945440     1.11100
C157        C  0.98398566  0.67392136  0.09033290     1.11000
C158        C  0.22885809  0.72310639  0.26065073     0.03800
C159        C  0.22046888  0.74274325  0.23384458     0.03800
C160        C  0.24041978  0.76913753  0.22507609     0.03800
C161        C  0.26718807  0.77742196  0.24474163     0.03800
C162        C  0.27579013  0.75762469  0.27133539     0.03800
C163        C  0.25574800  0.73133948  0.28024216     0.03800
O164        O  0.21120497  0.67918201  0.50144472    -0.78600
O165        O  0.29441838  0.67436997  0.50691946    -0.78600
O166        O  0.22645340  0.62768195  0.57714807    -0.78600
O167        O  0.27318527  0.62960459  0.42795708    -0.78600
O168        O  0.25154795  0.66868937  0.55723209    -0.78700
O169        O  0.25272569  0.67183096  0.45039961    -0.66600
O170        O  0.31621558  0.63854380  0.47382003    -0.78600
O171        O  0.18520973  0.64399673  0.53200200    -0.78600
C172        C  0.19020705  0.67267877  0.52223664     1.11100
C173        C  0.31466304  0.66682823  0.48565978     1.11000
C174        C  0.23652469  0.65619556  0.58033756     1.11100
C175        C  0.26551338  0.65897129  0.42616587     1.11000
O176        O  0.21969826  0.61033824  0.43654632    -0.78600
O177        O  0.27742922  0.60292229  0.56743790    -0.78700
O178        O  0.19424110  0.58057989  0.50035324    -0.78600
O179        O  0.30068805  0.57479883  0.50145290    -0.78600
O180        O  0.32376134  0.61462936  0.52570180    -0.78600
O181        O  0.17497004  0.62398408  0.47916304    -0.78600
O182        O  0.24955127  0.57234812  0.45929393    -0.78500
O183        O  0.24392519  0.56998182  0.54217728    -0.78600
Co184      Co  0.21789924  0.64569452  0.46979270     1.51500
Co185      Co  0.28346082  0.63998812  0.53646040     1.51700
Co186      Co  0.21535788  0.60591404  0.53466634     1.51600
Co187      Co  0.28204690  0.60430051  0.46895077     1.51500
O188        O  0.24975372  0.62400837  0.50244485    -1.40500
C189        C  0.22904492  0.58119855  0.43884485     1.11000
C190        C  0.26512365  0.57511256  0.56310828     1.11100
C191        C  0.17129944  0.59475696  0.48670496     1.11100
C192        C  0.32496415  0.58600845  0.51563244     1.11000
C193        C  0.22777783  0.77624177  0.76094370     0.03800
C194        C  0.21965820  0.75661032  0.73406488     0.03800
C195        C  0.23954010  0.73004344  0.72561423     0.03800
C196        C  0.26598087  0.72152100  0.74559200     0.03800
C197        C  0.27434329  0.74131779  0.77225959     0.03800
C198        C  0.25438875  0.76781078  0.78080136     0.03800
O199        O  0.43434023  0.77972338  0.89467973    -0.78600
O200        O  0.56441834  0.72024331  0.89037677    -0.78600
O201        O  0.50018001  0.69577792  0.92004196    -0.78600
O202        O  0.49998392  0.80336525  0.92209575    -0.78600
O203        O  0.52153356  0.67540051  0.87721961    -0.78700
O204        O  0.47649871  0.82512522  0.88108680    -0.78600
O205        O  0.54172654  0.75187410  0.92700805    -0.78600
O206        O  0.45871083  0.74679383  0.92898198    -0.78600
C207        C  0.43835216  0.76841452  0.92296458     1.11100
C208        C  0.56176908  0.73051731  0.91919709     1.11000
C209        C  0.51355056  0.67230392  0.90639235     1.11100
C210        C  0.48599363  0.82726672  0.90985642     1.11000
O211        O  0.49517038  0.79288356  0.82273718    -0.78600
O212        O  0.50020070  0.71028635  0.82101943    -0.78700
O213        O  0.42399911  0.72789139  0.87197154    -0.78600
O214        O  0.57381393  0.77301381  0.86938733    -0.78600
O215        O  0.55179386  0.75140852  0.82752599    -0.78600
O216        O  0.44420973  0.75108636  0.83003159    -0.78600
O217        O  0.52832358  0.81578186  0.85785894    -0.78500
O218        O  0.46885144  0.68576926  0.85665400    -0.78600
Co219      Co  0.46541817  0.78383972  0.85744306     1.51500
Co220      Co  0.53160496  0.71767519  0.85458819     1.51700
Co221      Co  0.46628769  0.71693977  0.89397036     1.51600
Co222      Co  0.53258288  0.78315942  0.89368742     1.51500
O223        O  0.49899056  0.75042874  0.87495479    -1.40500
C224        C  0.51685890  0.81293510  0.82950371     1.11000
C225        C  0.47900702  0.68979910  0.82793521     1.11100
C226        C  0.42085079  0.73703075  0.84316777     1.11100
C227        C  0.57587507  0.76462163  0.84025655     1.11000
C228        C  0.74040569  0.26904920  0.72505215     0.03800
C229        C  0.76717310  0.27736036  0.74468801     0.03800
C230        C  0.77583679  0.25759650  0.77127449     0.03800
C231        C  0.75581251  0.23130133  0.78022405     0.03800
C232        C  0.72890986  0.22305173  0.76067586     0.03800
C233        C  0.72047757  0.24264083  0.73385998     0.03800
O234        O  0.89073099  0.43311502  0.77698378    -0.78600
O235        O  0.89225382  0.56430035  0.71892432    -0.78600
O236        O  0.91890333  0.49862141  0.69369502    -0.78600
O237        O  0.92233430  0.49743187  0.80019129    -0.78600
O238        O  0.87717672  0.52252598  0.67382317    -0.78700
O239        O  0.88083969  0.47576066  0.82287689    -0.78600
O240        O  0.92821426  0.53919823  0.74931325    -0.78600
O241        O  0.92588878  0.45600913  0.74394239    -0.78600
C242        C  0.91894027  0.43547004  0.76509618     1.11100
C243        C  0.92107667  0.56006797  0.72861347     1.11000
C244        C  0.90595308  0.51320619  0.67056417     1.11100
C245        C  0.90999802  0.48417599  0.82442570     1.11000
O246        O  0.82275870  0.49785879  0.79204400    -0.78600
O247        O  0.82009416  0.50333481  0.70909296    -0.78700
O248        O  0.86683275  0.42499951  0.72527325    -0.78600
O249        O  0.87215570  0.57383363  0.77188361    -0.78600
O250        O  0.82925714  0.55340419  0.75075288    -0.78600
O251        O  0.82649139  0.44711525  0.74960403    -0.78600
O252        O  0.86006045  0.52871373  0.81457863    -0.78500
O253        O  0.85387473  0.47090908  0.68357156    -0.78600
Co254      Co  0.85557879  0.46631816  0.78207251     1.51500
Co255      Co  0.85512299  0.53300788  0.71638074     1.51700
Co256      Co  0.89113804  0.46593638  0.71449480     1.51600
Co257      Co  0.89513781  0.53155790  0.78112456     1.51500
O258        O  0.87426347  0.49916740  0.74855056    -1.40500
C259        C  0.83117079  0.51859398  0.81244824     1.11000
C260        C  0.82576189  0.48246213  0.68799372     1.11100
C261        C  0.83820907  0.42320467  0.73524608     1.11100
C262        C  0.84285717  0.57675369  0.76430128     1.11000
O263        O  0.00018803  0.21028328  0.32102233    -0.78600
O264        O  0.99517372  0.29288236  0.32273326    -0.78600
O265        O  0.92400012  0.22789085  0.37196817    -0.78600
O266        O  0.07381375  0.27300608  0.36936021    -0.78600
O267        O  0.94421485  0.25107942  0.33002560    -0.78700
O268        O  0.05178181  0.25139320  0.32750951    -0.78600
O269        O  0.02832116  0.31578596  0.35785508    -0.78600
O270        O  0.96884647  0.18576771  0.35666302    -0.78600
C271        C  0.97899269  0.18980165  0.32794248     1.11100
C272        C  0.01683924  0.31295711  0.32950498     1.11000
C273        C  0.92085457  0.23702554  0.34316177     1.11100
C274        C  0.07586864  0.26460401  0.34023178     1.11000
O275        O  0.06442696  0.22023071  0.39035417    -0.78600
O276        O  0.93433938  0.27971789  0.39467270    -0.78700
O277        O  0.00017788  0.19578002  0.42004597    -0.78600
O278        O  0.99999702  0.30335287  0.42209276    -0.78600
O279        O  0.97649530  0.32510864  0.38108821    -0.78600
O280        O  0.02152561  0.17538993  0.37722566    -0.78600
O281        O  0.04174816  0.25186423  0.42699009    -0.78500
O282        O  0.95871384  0.24679980  0.42898157    -0.78600
Co283      Co  0.03160006  0.21766275  0.35458131     1.51500
Co284      Co  0.96542032  0.28383126  0.35743783     1.51700
Co285      Co  0.96628745  0.21694096  0.39397339     1.51600
Co286      Co  0.03259203  0.28315349  0.39367452     1.51500
O287        O  0.99899374  0.25042286  0.37495091    -1.40500
C288        C  0.06179060  0.23050916  0.41917336     1.11000
C289        C  0.93835508  0.26841916  0.42296072     1.11100
C290        C  0.01353598  0.17228910  0.40640203     1.11100
C291        C  0.98598503  0.32724464  0.40985881     1.11000
C292        C  0.26961449  0.22185921  0.25974940     0.03800
C293        C  0.24274633  0.23041770  0.27924116     0.03800
C294        C  0.22308608  0.25707655  0.27041393     0.03800
C295        C  0.23217220  0.27690530  0.24400626     0.03800
C296        C  0.25876364  0.26812760  0.22431613     0.03800
C297        C  0.27837432  0.24144981  0.23305153     0.03800
O298        O  0.20724982  0.32404051  0.00462192    -0.78600
O299        O  0.28997716  0.32036630  0.99893331    -0.78600
O300        O  0.22764135  0.37113613  0.92697081    -0.78600
O301        O  0.27452562  0.36955190  0.07606722    -0.78600
O302        O  0.24843405  0.32862463  0.94851634    -0.78700
O303        O  0.24973621  0.32883719  0.05520797    -0.78600
O304        O  0.31580139  0.35484760  0.03039988    -0.78600
O305        O  0.18491095  0.36045649  0.97256031    -0.78600
C306        C  0.18693070  0.33187089  0.98357301     1.11100
C307        C  0.31076826  0.32638535  0.02003240     1.11000
C308        C  0.23533234  0.34182623  0.92468481     1.11100
C309        C  0.26450761  0.34096567  0.07867279     1.11000
O310        O  0.22314020  0.39389895  0.06716685    -0.78600
O311        O  0.28089115  0.39082205  0.93592053    -0.78700
O312        O  0.19969712  0.42363318  0.00189234    -0.78600
O313        O  0.30617271  0.41909767  0.00058390    -0.78600
O314        O  0.32580146  0.37647708  0.97814985    -0.78600
O315        O  0.17694390  0.38292377  0.02494691    -0.78600
O316        O  0.25632891  0.42790640  0.04288376    -0.78500
O317        O  0.25065272  0.42791788  0.95960668    -0.78600
Co318      Co  0.21756935  0.35772644  0.03510313     1.51500
Co319      Co  0.28306005  0.35461204  0.96826655     1.51700
Co320      Co  0.21858930  0.39528478  0.96855883     1.51600
Co321      Co  0.28533344  0.39256877  0.03420164     1.51500
O322        O  0.25109313  0.37507199  0.00153675    -1.40500
C323        C  0.23541047  0.42186103  0.06388143     1.11000
C324        C  0.27134093  0.41982996  0.93901191     1.11100
C325        C  0.17544855  0.41179210  0.01559841     1.11100
C326        C  0.32920040  0.40554005  0.98643642     1.11000
C327        C  0.25976442  0.23083514  0.72497083     0.03800
C328        C  0.23335629  0.22204209  0.74490926     0.03800
C329        C  0.22447180  0.24204265  0.77125274     0.03800
C330        C  0.24407584  0.26888078  0.77960493     0.03800
C331        C  0.27082498  0.27740030  0.75992566     0.03800
C332        C  0.27935043  0.25764816  0.73328657     0.03800
O333        O  0.56719099  0.27651485  0.60913113    -0.78600
O334        O  0.43299405  0.22244309  0.60862058    -0.78600
O335        O  0.49877343  0.19707809  0.57830671    -0.78600
O336        O  0.50188482  0.30141722  0.57726565    -0.78600
O337        O  0.47452740  0.17602961  0.61935039    -0.78700
O338        O  0.52555522  0.32307601  0.61833689    -0.78600
O339        O  0.45800430  0.25221933  0.57228270    -0.78600
O340        O  0.54283816  0.24595141  0.57297314    -0.78600
C341        C  0.56445541  0.26564612  0.58062097     1.11100
C342        C  0.43596887  0.23303891  0.58002143     1.11000
C343        C  0.48398928  0.17368383  0.59051874     1.11100
C344        C  0.51650403  0.32501672  0.58932985     1.11000
O345        O  0.50272148  0.29259940  0.67688899    -0.78600
O346        O  0.49638904  0.20737672  0.67776526    -0.78700
O347        O  0.57341023  0.22417439  0.63183654    -0.78600
O348        O  0.42648572  0.27518308  0.63029645    -0.78600
O349        O  0.44746561  0.25152989  0.67174548    -0.78600
O350        O  0.55181234  0.24853112  0.67254305    -0.78600
O351        O  0.47282674  0.31688636  0.64013576    -0.78500
O352        O  0.52693139  0.18261691  0.64187272    -0.78600
Co353      Co  0.53385178  0.28201946  0.64388400     1.51500
Co354      Co  0.46583063  0.21749833  0.64399671     1.51700
Co355      Co  0.53234337  0.21542521  0.60656459     1.51600
Co356      Co  0.46794779  0.28343253  0.60540659     1.51500
O357        O  0.49999877  0.24959548  0.62499623    -1.40500
C358        C  0.48332240  0.31432728  0.66880027     1.11000
C359        C  0.51601391  0.18559376  0.67034512     1.11100
C360        C  0.57536154  0.23367333  0.66068796     1.11100
C361        C  0.42411307  0.26621534  0.65929714     1.11000
O362        O  0.32030175  0.00331866  0.20909258    -0.78600
O363        O  0.32288286  0.99785862  0.29204831    -0.78600
O364        O  0.36705914  0.92500871  0.22531556    -0.78600
O365        O  0.37224967  0.07386158  0.27192982    -0.78600
O366        O  0.32668372  0.94711498  0.24959901    -0.78700
O367        O  0.32938634  0.05340155  0.25076004    -0.78600
O368        O  0.36015030  0.02872798  0.31461978    -0.78600
O369        O  0.35412431  0.97092065  0.18359328    -0.78600
C370        C  0.32600760  0.98247956  0.18797106     1.11100
C371        C  0.33126977  0.01858538  0.31247327     1.11000
C372        C  0.33842268  0.92319462  0.23526398     1.11100
C373        C  0.34296003  0.07676200  0.26431157     1.11000
O374        O  0.39240295  0.06433564  0.21898917    -0.78600
O375        O  0.39090675  0.93315848  0.27704064    -0.78700
O376        O  0.41912183  0.99866203  0.19376634    -0.78600
O377        O  0.42245733  0.99749153  0.30029095    -0.78600
O378        O  0.38094927  0.97578221  0.32292166    -0.78600
O379        O  0.37739936  0.02255794  0.17387184    -0.78600
O380        O  0.42835612  0.03926507  0.24941358    -0.78500
O381        O  0.42608860  0.95606138  0.24403059    -0.78600
Co382      Co  0.35529905  0.03301960  0.21641166     1.51500
Co383      Co  0.35572959  0.96633542  0.28209581     1.51700
Co384      Co  0.39135566  0.96596359  0.21455310     1.51600
Co385      Co  0.39525371  0.03159867  0.28119424     1.51500
O386        O  0.37443361  0.99919252  0.24859553    -1.40500
C387        C  0.42122092  0.06012145  0.22869889     1.11000
C388        C  0.41913296  0.93554220  0.26520086     1.11100
C389        C  0.40618078  0.01324413  0.17062484     1.11100
C390        C  0.41010455  0.98420428  0.32450250     1.11000
C391        C  0.49412143  0.02917336  0.51644786     0.03800
C392        C  0.47444535  0.02102294  0.48963672     0.03800
C393        C  0.48282981  0.99434098  0.46981808     0.03800
C394        C  0.50936223  0.97439536  0.47831523     0.03800
C395        C  0.52927627  0.98287793  0.50484295     0.03800
C396        C  0.52074904  0.00934422  0.52480267     0.03800
O397        O  0.45839671  0.75310277  0.42825891    -0.78600
O398        O  0.54147314  0.74799997  0.42824888    -0.78600
O399        O  0.47737482  0.67514226  0.38037150    -0.78600
O400        O  0.52265147  0.82477730  0.37859875    -0.78600
O401        O  0.49991125  0.69662865  0.42204546    -0.78700
O402        O  0.50017414  0.80415571  0.42074346    -0.78600
O403        O  0.56510260  0.77976737  0.39236762    -0.78600
O404        O  0.43487091  0.72043636  0.39311997    -0.78600
C405        C  0.43824916  0.73146450  0.42158903     1.11100
C406        C  0.56179622  0.76927458  0.42104049     1.11000
C407        C  0.48617479  0.67281650  0.40935906     1.11100
C408        C  0.51394397  0.82767162  0.40756886     1.11000
O409        O  0.47038890  0.81478019  0.35677442    -0.78600
O410        O  0.52971506  0.68456001  0.35838972    -0.78700
O411        O  0.44635382  0.74957386  0.32899356    -0.78600
O412        O  0.55382424  0.74917223  0.32897360    -0.78600
O413        O  0.57495450  0.72722047  0.37112699    -0.78600
O414        O  0.42516073  0.77248210  0.37059685    -0.78600
O415        O  0.50255253  0.79063670  0.32160637    -0.78500
O416        O  0.49752065  0.70790422  0.32270104    -0.78600
Co417      Co  0.46688601  0.78325771  0.39370581     1.51500
Co418      Co  0.53315623  0.71697563  0.39449773     1.51700
Co419      Co  0.46688998  0.71661743  0.35668267     1.51600
Co420      Co  0.53314085  0.78274148  0.35585318     1.51500
O421        O  0.50001821  0.74988745  0.37522263    -1.40500
C422        C  0.48124516  0.81110796  0.32826772     1.11000
C423        C  0.51887653  0.68763395  0.32981499     1.11100
C424        C  0.42263700  0.76340420  0.34171613     1.11100
C425        C  0.57758509  0.73572517  0.34206068     1.11000
O426        O  0.57512954  0.95594847  0.74391237    -0.78600
O427        O  0.57112353  0.03863332  0.74902373    -0.78600
O428        O  0.62049619  0.97692199  0.82283415    -0.78600
O429        O  0.62268037  0.02260902  0.67322897    -0.78600
O430        O  0.57834045  0.99747723  0.80038489    -0.78700
O431        O  0.58137636  0.99821615  0.69333321    -0.78600
O432        O  0.60635808  0.06421785  0.71814034    -0.78600
O433        O  0.61062762  0.93383567  0.77718462    -0.78600
C434        C  0.58232355  0.93588098  0.76544342     1.11100
C435        C  0.57767787  0.05949259  0.72809886     1.11000
C436        C  0.59117869  0.98476462  0.82466445     1.11100
C437        C  0.59406804  0.01285829  0.67010636     1.11000
O438        O  0.64686776  0.97142193  0.68338793    -0.78600
O439        O  0.64024762  0.03012067  0.81363905    -0.78700
O440        O  0.67459691  0.94817243  0.74927866    -0.78600
O441        O  0.66980111  0.05508679  0.74980989    -0.78600
O442        O  0.62649011  0.07466934  0.77089829    -0.78600
O443        O  0.63436056  0.92548580  0.72534947    -0.78600
O444        O  0.68009142  0.00496625  0.70829321    -0.78500
O445        O  0.67785053  0.99961753  0.79104672    -0.78600
Co446      Co  0.60964296  0.96609883  0.71432284     1.51500
Co447      Co  0.60466523  0.03193883  0.78060557     1.51700
Co448      Co  0.64544372  0.96747689  0.78174008     1.51600
Co449      Co  0.64435316  0.03385287  0.71564764     1.51500
O450        O  0.62604284  0.99978654  0.74809616    -1.40500
C451        C  0.67480358  0.98347219  0.68767621     1.11000
C452        C  0.66931809  0.02055665  0.81120064     1.11100
C453        C  0.66303667  0.92399493  0.73520638     1.11100
C454        C  0.65572633  0.07813922  0.76337402     1.11000
C455        C  0.48042452  0.00988871  0.02547424     0.03800
C456        C  0.47199061  0.98327889  0.00569444     0.03800
C457        C  0.49188566  0.97455780  0.97921722     0.03800
C458        C  0.51825897  0.99454605  0.97035443     0.03800
C459        C  0.52655572  0.02138429  0.98998251     0.03800
C460        C  0.50698281  0.02970547  0.01685774     0.03800
O461        O  0.45752166  0.24678290  0.07277961    -0.78600
O462        O  0.54233456  0.25301340  0.07295132    -0.78600
O463        O  0.47419888  0.32374138  0.11862797    -0.78600
O464        O  0.52506508  0.17658956  0.11968042    -0.78600
O465        O  0.49832069  0.30222491  0.07774991    -0.78700
O466        O  0.50137895  0.19780521  0.07840096    -0.78600
O467        O  0.56673621  0.22293365  0.10949062    -0.78600
O468        O  0.43260471  0.27715730  0.10869334    -0.78600
C469        C  0.43562403  0.26622157  0.08023172     1.11100
C470        C  0.56406545  0.23352236  0.08085786     1.11000
C471        C  0.48365508  0.32582384  0.08975679     1.11100
C472        C  0.51601440  0.17436136  0.09070658     1.11000
O473        O  0.47244491  0.18320184  0.14159844    -0.78600
O474        O  0.52666318  0.31730236  0.14104421    -0.78700
O475        O  0.44713114  0.24898487  0.17222551    -0.78600
O476        O  0.55156317  0.25193242  0.17252041    -0.78600
O477        O  0.57306784  0.27560505  0.13136809    -0.78600
O478        O  0.42608489  0.22472828  0.13116850    -0.78600
O479        O  0.50257008  0.20791149  0.17788271    -0.78500
O480        O  0.49624053  0.29297884  0.17734288    -0.78600
Co481      Co  0.46749737  0.21609836  0.10633686     1.51500
Co482      Co  0.53193103  0.28405209  0.10615288     1.51700
Co483      Co  0.46552656  0.28255372  0.14388111     1.51600
Co484      Co  0.53351799  0.21799529  0.14451090     1.51500
O485        O  0.49961581  0.25017874  0.12525074    -1.40500
C486        C  0.48293250  0.18623466  0.17022219     1.11000
C487        C  0.51576485  0.31470671  0.16956142     1.11100
C488        C  0.42377875  0.23404935  0.16006136     1.11100
C489        C  0.57510513  0.26651679  0.16033904     1.11000
O490        O  0.18474380  0.13868908  0.47288969    -0.78600
O491        O  0.31525645  0.14585216  0.53126916    -0.78600
O492        O  0.24888214  0.17048309  0.55607164    -0.78600
O493        O  0.24792327  0.17158129  0.44905507    -0.78600
O494        O  0.27413107  0.12988005  0.57661074    -0.78700
O495        O  0.22781299  0.12881172  0.42736774    -0.78600
O496        O  0.28914094  0.18022198  0.49989603    -0.78600
O497        O  0.20623743  0.17519801  0.50546954    -0.78600
C498        C  0.18628926  0.16723355  0.48407818     1.11100
C499        C  0.30995652  0.17432082  0.52102370     1.11000
C500        C  0.26387788  0.15834367  0.57937960     1.11100
C501        C  0.23510443  0.15824065  0.42511626     1.11000
O502        O  0.25151353  0.07232284  0.46008687    -0.78600
O503        O  0.25701619  0.07161312  0.54285632    -0.78700
O504        O  0.17687700  0.11581793  0.52517872    -0.78600
O505        O  0.32596150  0.12479221  0.47892439    -0.78600
O506        O  0.30687587  0.08168427  0.50085377    -0.78600
O507        O  0.20021307  0.07556851  0.50193783    -0.78600
O508        O  0.28131616  0.10987013  0.43654162    -0.78500
O509        O  0.22316726  0.10484307  0.56733658    -0.78600
Co510      Co  0.21891868  0.10438189  0.46887772     1.51500
Co511      Co  0.28543506  0.10754358  0.53460333     1.51700
Co512      Co  0.21712793  0.14136476  0.53566428     1.51600
Co513      Co  0.28283892  0.14600884  0.46900125     1.51500
O514        O  0.25101193  0.12486508  0.50203403    -1.40500
C515        C  0.27212664  0.08073454  0.43956676     1.11000
C516        C  0.23578736  0.07706060  0.56371675     1.11100
C517        C  0.17576590  0.08702526  0.51560965     1.11100
C518        C  0.32978788  0.09570734  0.48697977     1.11000
C519        C  0.77071638  0.77745833  0.25986378     0.03800
C520        C  0.74396877  0.76892073  0.27952252     0.03800
C521        C  0.72436525  0.74208459  0.27115090     0.03800
C522        C  0.73328249  0.72210027  0.24480629     0.03800
C523        C  0.75969515  0.73090493  0.22489446     0.03800
C524        C  0.77927066  0.75772837  0.23321568     0.03800
O525        O  0.61006006  0.56617201  0.27594111    -0.78600
O526        O  0.60514117  0.43565170  0.21760720    -0.78600
O527        O  0.58094137  0.50174175  0.19216092    -0.78600
O528        O  0.57700180  0.50291003  0.29923898    -0.78600
O529        O  0.62216044  0.47675330  0.17259528    -0.78700
O530        O  0.61913024  0.52328548  0.32188556    -0.78600
O531        O  0.56992118  0.46176289  0.24803893    -0.78600
O532        O  0.57463032  0.54431457  0.24243535    -0.78600
C533        C  0.58182146  0.56430941  0.26402908     1.11100
C534        C  0.57641451  0.44087682  0.22715475     1.11000
C535        C  0.59366940  0.48675205  0.16917694     1.11100
C536        C  0.58975532  0.51566429  0.32353440     1.11000
O537        O  0.67652117  0.49986469  0.29087679    -0.78600
O538        O  0.67949582  0.49413723  0.20788333    -0.78700
O539        O  0.63436467  0.57413912  0.22431469    -0.78600
O540        O  0.62482226  0.42511540  0.27050410    -0.78600
O541        O  0.66844519  0.44431062  0.24971582    -0.78600
O542        O  0.67413200  0.55112882  0.24870353    -0.78600
O543        O  0.63846810  0.46978732  0.31328732    -0.78500
O544        O  0.64672610  0.52782616  0.18257770    -0.78600
Co545      Co  0.64452190  0.53226717  0.28100688     1.51500
Co546      Co  0.64343771  0.46560562  0.21523496     1.51700
Co547      Co  0.60934291  0.53368608  0.21323362     1.51600
Co548      Co  0.60323161  0.46814405  0.27986612     1.51500
O549        O  0.62514670  0.49998751  0.24735439    -1.40500
C550        C  0.66761861  0.47917002  0.31114155     1.11000
C551        C  0.67448658  0.51540419  0.18694899     1.11100
C552        C  0.66292667  0.57543397  0.23455463     1.11100
C553        C  0.65410233  0.42135408  0.26318634     1.11000
C554        C  0.77436879  0.24135928  0.27222509     0.03800
C555        C  0.76598441  0.22157816  0.24555474     0.03800
C556        C  0.73953200  0.23011194  0.22560113     0.03800
C557        C  0.71965836  0.25667478  0.23407695     0.03800
C558        C  0.72780306  0.27629517  0.26095364     0.03800
C559        C  0.75442867  0.26785560  0.28078291     0.03800
C560        C  0.77838334  0.74143437  0.73310910     0.03800
C561        C  0.76959364  0.72185757  0.75981262     0.03800
C562        C  0.74271258  0.73044813  0.77927044     0.03800
C563        C  0.72308084  0.75710929  0.77042632     0.03800
C564        C  0.73219578  0.77692060  0.74400830     0.03800
C565        C  0.75879710  0.76810783  0.72434908     0.03800
O566        O  0.17650165  0.99980492  0.79088118    -0.78600
O567        O  0.17943741  0.99412822  0.70792059    -0.78600
O568        O  0.12479307  0.92507717  0.77052670    -0.78600
O569        O  0.13433968  0.07413013  0.72439594    -0.78600
O570        O  0.16840681  0.94427661  0.74972310    -0.78700
O571        O  0.17411239  0.05109266  0.74874935    -0.78600
O572        O  0.14666473  0.02782810  0.68263449    -0.78600
O573        O  0.13845713  0.96973752  0.81331772    -0.78600
C574        C  0.16760806  0.97911366  0.81115091     1.11100
C575        C  0.17442392  0.01539888  0.68699247     1.11000
C576        C  0.15406906  0.92131450  0.76319030     1.11100
C577        C  0.16290918  0.07541365  0.73462232     1.11000
O578        O  0.11006207  0.06613904  0.77602868    -0.78600
O579        O  0.10509180  0.93563676  0.71763953    -0.78700
O580        O  0.07698452  0.00286592  0.79932065    -0.78600
O581        O  0.08087888  0.00175648  0.69223338    -0.78600
O582        O  0.12208419  0.97676458  0.67264201    -0.78600
O583        O  0.11913310  0.02323410  0.82194222    -0.78600
O584        O  0.07460291  0.04431350  0.74253317    -0.78500
O585        O  0.06987807  0.96172597  0.74809830    -0.78600
Co586      Co  0.14451136  0.03222234  0.78105529     1.51500
Co587      Co  0.14338329  0.96559363  0.71526651     1.51700
Co588      Co  0.10320511  0.96810442  0.77991454     1.51600
Co589      Co  0.10929853  0.03368670  0.71330894     1.51500
O590        O  0.12510610  0.99996324  0.74740488    -1.40500
C591        C  0.08181360  0.06428605  0.76414140     1.11000
C592        C  0.07636843  0.94084821  0.72720302     1.11100
C593        C  0.08975577  0.01562976  0.82360056     1.11100
C594        C  0.09359590  0.98677059  0.66924454     1.11000
O595        O  0.74504373  0.42973734  0.54200002    -0.78600
O596        O  0.75081803  0.42738812  0.45863636    -0.78600
O597        O  0.82398877  0.38406344  0.52569540    -0.78600
O598        O  0.67542790  0.37713389  0.47857204    -0.78600
O599        O  0.80152544  0.42418225  0.50130508    -0.78700
O600        O  0.69528179  0.42019165  0.49996669    -0.78600
O601        O  0.72045745  0.38974218  0.43600602    -0.78600
O602        O  0.77776683  0.39612767  0.56736189    -0.78600
C603        C  0.76582858  0.42410898  0.56320345     1.11100
C604        C  0.73012731  0.41877177  0.43825314     1.11000
C605        C  0.82555933  0.41268652  0.51565975     1.11100
C606        C  0.67218651  0.40640264  0.48616353     1.11000
O607        O  0.68496379  0.35692459  0.53146064    -0.78600
O608        O  0.81643177  0.36019293  0.47384909    -0.78700
O609        O  0.75095295  0.33088064  0.55684541    -0.78600
O610        O  0.75247437  0.32784011  0.45045509    -0.78600
O611        O  0.77368472  0.36959571  0.42784320    -0.78600
O612        O  0.72636899  0.37218423  0.57680045    -0.78600
O613        O  0.71068457  0.32137535  0.50113051    -0.78500
O614        O  0.79382934  0.32467461  0.50668883    -0.78600
Co615      Co  0.71581986  0.39438426  0.53431352     1.51500
Co616      Co  0.78274932  0.39492267  0.46871044     1.51700
Co617      Co  0.78333765  0.35916243  0.53624976     1.51600
Co618      Co  0.71797747  0.35460333  0.46942540     1.51500
O619        O  0.75001579  0.37579320  0.50214804    -1.40500
C620        C  0.68969121  0.32817345  0.52180150     1.11000
C621        C  0.81444587  0.33194631  0.48572050     1.11100
C622        C  0.73611524  0.34353277  0.57999185     1.11100
C623        C  0.76554254  0.34036111  0.42622412     1.11000
C624        C  0.97178504  0.48324911  0.50565918     0.03800
C625        C  0.98022996  0.50985490  0.52543878     0.03800
C626        C  0.00679112  0.52966305  0.51683458     0.03800
C627        C  0.02635756  0.52135762  0.48994533     0.03800
C628        C  0.01804006  0.49453643  0.47030384     0.03800
C629        C  0.99167847  0.47454259  0.47917003     0.03800
O630        O  0.81532728  0.64599343  0.03118372    -0.78600
O631        O  0.68474079  0.63870247  0.97293074    -0.78600
O632        O  0.74787329  0.67165591  0.94905526    -0.78600
O633        O  0.74894102  0.67057936  0.05601758    -0.78600
O634        O  0.72778184  0.62886901  0.92738320    -0.78700
O635        O  0.77424083  0.63000856  0.07655798    -0.78600
O636        O  0.70623464  0.67524158  0.00547405    -0.78600
O637        O  0.78915228  0.68034022  0.99983768    -0.78600
C638        C  0.81001056  0.67445559  0.02092782     1.11100
C639        C  0.68627087  0.66725180  0.98410734     1.11000
C640        C  0.73504435  0.65830281  0.92513269     1.11100
C641        C  0.76396037  0.65846096  0.07931787     1.11000
O642        O  0.75714509  0.57171380  0.04285795    -0.78600
O643        O  0.75156818  0.57240625  0.96009027    -0.78700
O644        O  0.82598239  0.62493092  0.97883046    -0.78600
O645        O  0.67695266  0.61583975  0.02523151    -0.78600
O646        O  0.70031070  0.57560860  0.00198239    -0.78600
O647        O  0.80695442  0.58181345  0.00079442    -0.78600
O648        O  0.72328832  0.60492614  0.06735225    -0.78500
O649        O  0.78130594  0.60997594  0.93650068    -0.78600
Co650      Co  0.78552916  0.60766499  0.03455791     1.51500
Co651      Co  0.71895000  0.60443161  0.96889916     1.51700
Co652      Co  0.78283563  0.64611697  0.96895500     1.51600
Co653      Co  0.71718726  0.64142905  0.03566928     1.51500
O654        O  0.75105766  0.62494993  0.00201845    -1.40500
C655        C  0.73592633  0.57715187  0.06373261     1.11000
C656        C  0.77214624  0.58083324  0.93954301     1.11100
C657        C  0.82984104  0.59585131  0.98689164     1.11100
C658        C  0.67585912  0.58704570  0.01566309     1.11000
C659        C  0.52082555  0.49015666  0.02377461     0.03800
C660        C  0.52947053  0.51672346  0.00397307     0.03800
C661        C  0.50952818  0.52560761  0.97759233     0.03800
C662        C  0.48279210  0.50593517  0.96912892     0.03800
C663        C  0.47426941  0.47918619  0.98881464     0.03800
C664        C  0.49402937  0.47055694  0.01541964     0.03800
O665        O  0.79448367  0.17459606  0.00694488    -0.78600
O666        O  0.71127270  0.17929686  0.00136202    -0.78600
O667        O  0.77340431  0.12975626  0.92798023    -0.78600
O668        O  0.72650179  0.12783025  0.07710295    -0.78600
O669        O  0.75286802  0.17196521  0.95038581    -0.78700
O670        O  0.75156380  0.16886652  0.05720605    -0.78600
O671        O  0.68529200  0.14409237  0.03191090    -0.78600
O672        O  0.81636503  0.13878646  0.97388232    -0.78600
C673        C  0.81475060  0.16707850  0.98569789     1.11100
C674        C  0.69027469  0.17277821  0.02214955     1.11000
C675        C  0.76569833  0.15911187  0.92617144     1.11100
C676        C  0.73653790  0.15635472  0.08029916     1.11000
O677        O  0.77751842  0.10313652  0.06745548    -0.78600
O678        O  0.71992648  0.11043039  0.93650245    -0.78700
O679        O  0.80088204  0.07502719  0.00152722    -0.78600
O680        O  0.69442904  0.08067808  0.00028389    -0.78600
O681        O  0.67512791  0.12405287  0.97906631    -0.78600
O682        O  0.82388405  0.11489984  0.02577529    -0.78600
O683        O  0.74408221  0.07015112  0.04216093    -0.78500
O684        O  0.74980940  0.07248553  0.95929012    -0.78600
Co685      Co  0.78353812  0.14020496  0.03647910     1.51500
Co686      Co  0.71804496  0.14580181  0.96973414     1.51700
Co687      Co  0.78224969  0.10448723  0.96898719     1.51600
Co688      Co  0.71547886  0.10604352  0.03461433     1.51500
O689        O  0.74988913  0.12416941  0.00243046    -1.40500
C690        C  0.76524715  0.07531264  0.06311803     1.11000
C691        C  0.72931279  0.08130364  0.93881452     1.11100
C692        C  0.82513307  0.08627060  0.01572900     1.11100
C693        C  0.67148073  0.09482892  0.98662397     1.11000
O694        O  0.35463159  0.52800511  0.68254789    -0.78600
O695        O  0.36126879  0.47095936  0.81407536    -0.78600
O696        O  0.33098693  0.44557146  0.75026074    -0.78600
O697        O  0.32669918  0.55181680  0.74851320    -0.78600
O698        O  0.37408058  0.42574846  0.77155801    -0.78700
O699        O  0.36672303  0.57442445  0.72413104    -0.78600
O700        O  0.32360970  0.50116015  0.79125929    -0.78600
O701        O  0.32122608  0.49522480  0.70811984    -0.78600
C702        C  0.32671196  0.51593484  0.68679567     1.11100
C703        C  0.33226440  0.48074763  0.81190004     1.11000
C704        C  0.34482556  0.42241114  0.76390322     1.11100
C705        C  0.33812094  0.57594847  0.73426070     1.11000
O706        O  0.42621712  0.54433999  0.74304875    -0.78600
O707        O  0.42978379  0.46118864  0.74903987    -0.78700
O708        O  0.37868363  0.47660358  0.67331259    -0.78600
O709        O  0.38128309  0.52429242  0.82203925    -0.78600
O710        O  0.42312743  0.50306563  0.79959627    -0.78600
O711        O  0.41999383  0.50137017  0.69302935    -0.78600
O712        O  0.39063513  0.56679937  0.77593028    -0.78500
O713        O  0.39426921  0.43544130  0.71868374    -0.78600
Co714      Co  0.39167524  0.53374075  0.71359409     1.51500
Co715      Co  0.39646160  0.46844630  0.78067174     1.51700
Co716      Co  0.35666336  0.46611516  0.71583343     1.51600
Co717      Co  0.35597963  0.53314030  0.78113975     1.51500
O718        O  0.37522857  0.50041062  0.74783324    -1.40500
C719        C  0.41888574  0.56485566  0.76408772     1.11000
C720        C  0.42303187  0.44030458  0.72824337     1.11100
C721        C  0.40730943  0.48633853  0.67003237     1.11100
C722        C  0.41054517  0.51628496  0.82371748     1.11000
O723        O  0.78073800  0.89066356  0.43587608    -0.78600
O724        O  0.72311944  0.89372581  0.56717882    -0.78600
O725        O  0.69957952  0.92340743  0.50193841    -0.78600
O726        O  0.80607206  0.91895023  0.50050194    -0.78600
O727        O  0.67688166  0.88268304  0.52501777    -0.78700
O728        O  0.82571484  0.87634134  0.47806604    -0.78600
O729        O  0.75626613  0.92774239  0.54284838    -0.78600
O730        O  0.75048211  0.92773232  0.45958579    -0.78600
C731        C  0.77115059  0.91966037  0.43896285     1.11100
C732        C  0.73536539  0.92169593  0.56386404     1.11000
C733        C  0.67535625  0.91154982  0.51567206     1.11100
C734        C  0.82910589  0.90540279  0.48635896     1.11000
O735        O  0.78993888  0.82021096  0.49887823    -0.78600
O736        O  0.70722045  0.82381979  0.50468413    -0.78700
O737        O  0.72748471  0.87093716  0.42699284    -0.78600
O738        O  0.77453159  0.86941798  0.57603532    -0.78600
O739        O  0.74975653  0.82867604  0.55521690    -0.78600
O740        O  0.74834114  0.82844307  0.44850860    -0.78600
O741        O  0.81576320  0.85470916  0.53032761    -0.78500
O742        O  0.68481742  0.86020470  0.47263139    -0.78600
Co743      Co  0.78297013  0.85445418  0.46822185     1.51500
Co744      Co  0.71754410  0.85752972  0.53513735     1.51700
Co745      Co  0.71845782  0.89507120  0.46858703     1.51600
Co746      Co  0.78528192  0.89241952  0.53414854     1.51500
O747        O  0.75101894  0.87489059  0.50152667    -1.40500
C748        C  0.81072932  0.82624148  0.51997445     1.11000
C749        C  0.68688110  0.83162112  0.48364402     1.11100
C750        C  0.73520442  0.84163856  0.42469492     1.11100
C751        C  0.76453638  0.84082845  0.57865971     1.11000
O752        O  0.07101192  0.53869969  0.24884511    -0.78600
O753        O  0.07496973  0.45600446  0.24383679    -0.78600
O754        O  0.12267951  0.52253525  0.17313564    -0.78600
O755        O  0.12027625  0.47705520  0.32279408    -0.78600
O756        O  0.08132604  0.49819707  0.19320406    -0.78700
O757        O  0.07814873  0.49761206  0.30029043    -0.78600
O758        O  0.11040661  0.43391971  0.27719438    -0.78600
O759        O  0.10629865  0.56421568  0.21796165    -0.78600
C760        C  0.07760295  0.55952084  0.22789207     1.11100
C761        C  0.08211607  0.43597597  0.26542074     1.11000
C762        C  0.09406107  0.51281538  0.16998671     1.11100
C763        C  0.09096097  0.48490819  0.32458862     1.11000
O764        O  0.14006813  0.53022950  0.31353647    -0.78600
O765        O  0.14682290  0.47134733  0.18340925    -0.78700
O766        O  0.16969817  0.55511396  0.24973458    -0.78600
O767        O  0.17442977  0.44814519  0.24934123    -0.78600
O768        O  0.13420239  0.42545861  0.22540277    -0.78600
O769        O  0.12636552  0.57474186  0.27073271    -0.78600
O770        O  0.17766804  0.49966540  0.29101680    -0.78500
O771        O  0.18001783  0.50491111  0.20832915    -0.78600
Co772      Co  0.10451579  0.53202850  0.28047412     1.51500
Co773      Co  0.10953847  0.46608740  0.21428613     1.51700
Co774      Co  0.14428666  0.53382980  0.21557319     1.51600
Co775      Co  0.14525059  0.46753398  0.28173573     1.51500
O776        O  0.12590877  0.49981459  0.24803475    -1.40500
C777        C  0.16913285  0.52063781  0.31113385     1.11000
C778        C  0.17475673  0.48339298  0.18773124     1.11100
C779        C  0.15561701  0.57819904  0.26324613     1.11100
C780        C  0.16286806  0.42396158  0.23528551     1.11000
C781        C  0.51799721  0.50570535  0.46957351     0.03800
C782        C  0.49140532  0.52535209  0.47854796     0.03800
C783        C  0.47161449  0.51621096  0.50495710     0.03800
C784        C  0.48040721  0.48955402  0.52454414     0.03800
C785        C  0.50715751  0.47004619  0.51579381     0.03800
C786        C  0.52668534  0.47886641  0.48905131     0.03800
C787        C  0.02083749  0.50956295  0.02462032     0.03800
C788        C  0.02937253  0.48311113  0.00464617     0.03800
C789        C  0.00945445  0.47463907  0.97811326     0.03800
C790        C  0.98290985  0.49457401  0.96964149     0.03800
C791        C  0.97453187  0.52125483  0.98946277     0.03800
C792        C  0.99421860  0.52940205  0.01627183     0.03800
C793        C  0.07752319  0.51582338  0.13926263    -0.17000
C794        C  0.06495311  0.51675183  0.11281467     0.07100
C795        C  0.05057259  0.51638446  0.08151449     0.09000
C796        C  0.03781825  0.51456231  0.05520053    -0.17800
C797        C  0.42388611  0.48295200  0.63932647    -0.17000
C798        C  0.43649983  0.48183695  0.61287219     0.07100
C799        C  0.45090172  0.48214510  0.58154501     0.09000
C800        C  0.46360943  0.48409441  0.55518264    -0.17800
C801        C  0.42760939  0.51823288  0.85421148    -0.17000
C802        C  0.43990806  0.51755128  0.88079101     0.07100
C803        C  0.45354464  0.51502534  0.91230960     0.09000
C804        C  0.46577026  0.51168503  0.93872616    -0.17800
C805        C  0.86088171  0.58002514  0.98299269    -0.17000
C806        C  0.88726973  0.56727278  0.98174303     0.07100
C807        C  0.91827606  0.55219311  0.98205400     0.09000
C808        C  0.94428396  0.53876319  0.98403280    -0.17800
C809        C  0.56029294  0.53314455  0.00927385    -0.17000
C810        C  0.58703764  0.54466264  0.01252887     0.07100
C811        C  0.61886680  0.55752985  0.01528343     0.09000
C812        C  0.64556707  0.56952805  0.01647845    -0.17800
C813        C  0.07396340  0.48312947  0.35525300    -0.17000
C814        C  0.06147160  0.48372954  0.38180640     0.07100
C815        C  0.04743729  0.48594884  0.41328912     0.09000
C816        C  0.03498779  0.48897452  0.43970147    -0.17800
C817        C  0.64139593  0.42260281  0.48214469    -0.17000
C818        C  0.61492518  0.43509075  0.48089795     0.07100
C819        C  0.58359174  0.44940706  0.48132794     0.09000
C820        C  0.55725564  0.46206155  0.48346175    -0.17800
C821        C  0.85592496  0.42999110  0.51695369    -0.17000
C822        C  0.88263135  0.44197112  0.51622111     0.07100
C823        C  0.91442300  0.45494294  0.51395729     0.09000
C824        C  0.94110808  0.46662132  0.51096247    -0.17800
C825        C  0.76710293  0.82386357  0.60923035    -0.17000
C826        C  0.76754229  0.81131079  0.63572726     0.07100
C827        C  0.76655343  0.79722861  0.66718851     0.09000
C828        C  0.76424731  0.78480922  0.69365353    -0.17800
C829        C  0.73694389  0.71361122  0.80983903    -0.17000
C830        C  0.73408780  0.70122569  0.83627509     0.07100
C831        C  0.73237224  0.68729641  0.86778572     0.09000
C832        C  0.73238468  0.67494426  0.89438661    -0.17800
C833        C  0.73452267  0.21314588  0.19495785    -0.17000
C834        C  0.73273879  0.20029914  0.16866805     0.07100
C835        C  0.73243319  0.18573308  0.13739766     0.09000
C836        C  0.73342594  0.17302299  0.11099934    -0.17800
C837        C  0.75995381  0.28484254  0.31129104    -0.17000
C838        C  0.76331944  0.29712076  0.33768040     0.07100
C839        C  0.76609228  0.31089268  0.36915680     0.09000
C840        C  0.76709276  0.32327497  0.39568769    -0.17800
C841        C  0.68935508  0.46975619  0.33531260    -0.17000
C842        C  0.70297366  0.46324942  0.35961624     0.07100
C843        C  0.71363008  0.45369370  0.38972849     0.09000
C844        C  0.72081865  0.44062895  0.41414295    -0.17800
C845        C  0.69892096  0.52206669  0.16441512    -0.17000
C846        C  0.71396771  0.52777035  0.14073595     0.07100
C847        C  0.72433373  0.53841926  0.11086318     0.09000
C848        C  0.72961538  0.55329217  0.08697397    -0.17800
C849        C  0.57728403  0.48358595  0.13840537    -0.17000
C850        C  0.56482725  0.48256374  0.11191204     0.07100
C851        C  0.55054768  0.48292551  0.08058665     0.09000
C852        C  0.53782337  0.48486306  0.05427184    -0.17800
C853        C  0.53466559  0.51153047  0.43890870    -0.17000
C854        C  0.54675284  0.51472613  0.41235787     0.07100
C855        C  0.56037044  0.51703725  0.38073641     0.09000
C856        C  0.57268287  0.51760761  0.35410895    -0.17800
C857        C  0.71039812  0.30659350  0.26639283    -0.17000
C858        C  0.69716895  0.33269037  0.26837436     0.07100
C859        C  0.68236567  0.36382419  0.26863761     0.09000
C860        C  0.66981498  0.39029099  0.26728643    -0.17800
C861        C  0.73275040  0.82501925  0.39400172    -0.17000
C862        C  0.73301122  0.81263452  0.36747990     0.07100
C863        C  0.73509825  0.79861968  0.33610294     0.09000
C864        C  0.73819457  0.78608137  0.30983132    -0.17800
C865        C  0.76669191  0.67533916  0.10985568    -0.17000
C866        C  0.76744455  0.68775771  0.13635471     0.07100
C867        C  0.76686997  0.70170702  0.16782644     0.09000
C868        C  0.76486759  0.71410249  0.19427093    -0.17800
C869        C  0.71702951  0.69111904  0.23971329    -0.17000
C870        C  0.70550970  0.66431133  0.23682461     0.07100
C871        C  0.69254138  0.63245109  0.23454916     0.09000
C872        C  0.68046761  0.60575070  0.23365836    -0.17800
C873        C  0.22946144  0.05320469  0.58695423    -0.17000
C874        C  0.22419913  0.03834327  0.61085325     0.07100
C875        C  0.21387025  0.02772382  0.64074669     0.09000
C876        C  0.19884567  0.02204663  0.66444459    -0.17800
C877        C  0.52151502  0.34003463  0.19122963    -0.17000
C878        C  0.52644337  0.36536214  0.20355529     0.07100
C879        C  0.53676800  0.39586966  0.21204522     0.09000
C880        C  0.55206440  0.41929392  0.21791713    -0.17800
C881        C  0.58923481  0.22733175  0.05906998    -0.17000
C882        C  0.61434359  0.22217060  0.04634943     0.07100
C883        C  0.64474267  0.21193437  0.03724888     0.09000
C884        C  0.66832383  0.19694395  0.03111763    -0.17800
C885        C  0.48162233  0.35633418  0.07257212    -0.17000
C886        C  0.48230615  0.38273974  0.05981924     0.07100
C887        C  0.48484466  0.41400854  0.04544307     0.09000
C888        C  0.48819759  0.44021473  0.03269500    -0.17800
C889        C  0.60552279  0.26879677  0.17743878    -0.17000
C890        C  0.63195901  0.26822752  0.19001745     0.07100
C891        C  0.66324244  0.26572354  0.20411200     0.09000
C892        C  0.68945848  0.26238036  0.21673050    -0.17800
C893        C  0.64049254  0.07902332  0.98266924    -0.17000
C894        C  0.61403092  0.06652895  0.98152325     0.07100
C895        C  0.58286694  0.05188594  0.98209744     0.09000
C896        C  0.55677277  0.03878117  0.98434151    -0.17800
C897        C  0.51268081  0.06000694  0.03408327    -0.17000
C898        C  0.51589278  0.08622636  0.04675195     0.07100
C899        C  0.51816669  0.11748922  0.06099700     0.09000
C900        C  0.51852480  0.14389829  0.07366405    -0.17800
C901        C  0.69135289  0.03005211  0.83502434    -0.17000
C902        C  0.70459689  0.03674349  0.85945931     0.07100
C903        C  0.71409279  0.04648520  0.88986580     0.09000
C904        C  0.72032287  0.05959933  0.91449513    -0.17800
C905        C  0.69924301  0.97602095  0.66544610    -0.17000
C906        C  0.71426713  0.96994645  0.64187170     0.07100
C907        C  0.72430718  0.95941605  0.61188100     0.09000
C908        C  0.72922542  0.94498399  0.58766857    -0.17800
C909        C  0.71613607  0.80794453  0.73880675    -0.17000
C910        C  0.70486601  0.83484786  0.73610923     0.07100
C911        C  0.69223099  0.86683787  0.73427043     0.09000
C912        C  0.68039455  0.89362706  0.73382347    -0.17800
C913        C  0.57421638  0.98299261  0.85534116    -0.17000
C914        C  0.56172924  0.98362387  0.88190171     0.07100
C915        C  0.54769186  0.98589087  0.91337011     0.09000
C916        C  0.53522548  0.98895484  0.93977679    -0.17800
C917        C  0.55928437  0.58820989  0.27226402    -0.17000
C918        C  0.54523605  0.61204864  0.27955566     0.07100
C919        C  0.53456400  0.64129907  0.29149262     0.09000
C920        C  0.52773987  0.66463278  0.30658868    -0.17800
C921        C  0.58479407  0.77827490  0.44419810    -0.17000
C922        C  0.60857322  0.78514056  0.45854733     0.07100
C923        C  0.63840598  0.79564792  0.46909132     0.09000
C924        C  0.66264968  0.80942986  0.47548621    -0.17800
C925        C  0.48369458  0.64210678  0.42610307    -0.17000
C926        C  0.48324989  0.61529122  0.43797816     0.07100
C927        C  0.48414227  0.58335858  0.45100055     0.09000
C928        C  0.48628159  0.55648124  0.46255444    -0.17800
C929        C  0.60849439  0.73331856  0.32560972    -0.17000
C930        C  0.63526273  0.73310631  0.31355307     0.07100
C931        C  0.66697446  0.73434702  0.29996986     0.09000
C932        C  0.69358941  0.73675833  0.28780817    -0.17800
C933        C  0.55991632  0.96608178  0.51015963    -0.17000
C934        C  0.58651168  0.95415760  0.51331543     0.07100
C935        C  0.61820844  0.94088595  0.51587260     0.09000
C936        C  0.64488403  0.92877414  0.51684565    -0.17800
C937        C  0.44419782  0.03853712  0.48418930    -0.17000
C938        C  0.41819914  0.05197672  0.48219838     0.07100
C939        C  0.38719815  0.06707982  0.48187106     0.09000
C940        C  0.36082218  0.07985309  0.48310412    -0.17800
C941        C  0.53774659  0.01438285  0.55536089    -0.17000
C942        C  0.55051760  0.01626284  0.58166814     0.07100
C943        C  0.56491356  0.01670474  0.61295331     0.09000
C944        C  0.57750437  0.01582958  0.63939795    -0.17800
C945        C  0.51438576  0.94364475  0.46157518    -0.17000
C946        C  0.51646821  0.91706057  0.44939274     0.07100
C947        C  0.51726814  0.88535107  0.43583926     0.09000
C948        C  0.51668643  0.85859691  0.42386663    -0.17800
C949        C  0.47261409  0.83383170  0.30465002    -0.17000
C950        C  0.46601059  0.85740267  0.28980257     0.07100
C951        C  0.45563141  0.88716833  0.27885449     0.09000
C952        C  0.44175784  0.91141600  0.27258517    -0.17800
C953        C  0.47626494  0.16155715  0.19238677    -0.17000
C954        C  0.47049631  0.13664232  0.20518694     0.07100
C955        C  0.45974485  0.10636298  0.21399339     0.09000
C956        C  0.44479498  0.08269298  0.21980834    -0.17800
C957        C  0.30947059  0.02718609  0.33686053    -0.17000
C958        C  0.29669303  0.03384041  0.36155850     0.07100
C959        C  0.28765915  0.04435929  0.39185058     0.09000
C960        C  0.28149533  0.05836016  0.41600502    -0.17800
C961        C  0.42270978  0.01652314  0.13984146    -0.17000
C962        C  0.43551353  0.01748928  0.11345018     0.07100
C963        C  0.45029284  0.01706142  0.08226111     0.09000
C964        C  0.46332818  0.01513238  0.05603381    -0.17800
C965        C  0.42729809  0.98251478  0.35494856    -0.17000
C966        C  0.43972093  0.98326280  0.38147526     0.07100
C967        C  0.45351015  0.98571004  0.41294215     0.09000
C968        C  0.46582175  0.98887667  0.43934734    -0.17800
C969        C  0.58931341  0.27202075  0.55860106    -0.17000
C970        C  0.61419832  0.27774568  0.54575064     0.07100
C971        C  0.64429011  0.28879758  0.53675689     0.09000
C972        C  0.66762500  0.30418281  0.53078632    -0.17800
C973        C  0.52210676  0.16068122  0.69247460    -0.17000
C974        C  0.52759979  0.13557607  0.70507895     0.07100
C975        C  0.53836879  0.10519142  0.71365025     0.09000
C976        C  0.55359182  0.08162885  0.71931435    -0.17800
C977        C  0.41068775  0.22764391  0.55818907    -0.17000
C978        C  0.38546417  0.22345846  0.54536712     0.07100
C979        C  0.35489528  0.21398154  0.53611431     0.09000
C980        C  0.33137699  0.19895800  0.52990958    -0.17800
C981        C  0.44711019  0.41849488  0.71887779    -0.17000
C982        C  0.46212191  0.39504871  0.71242945     0.07100
C983        C  0.47223489  0.36472124  0.70312752     0.09000
C984        C  0.47721696  0.33960725  0.69040829    -0.17800
C985        C  0.51894436  0.35540005  0.57201907    -0.17000
C986        C  0.51857418  0.38182647  0.55931434     0.07100
C987        C  0.51630644  0.41319857  0.54517320     0.09000
C988        C  0.51305606  0.43954470  0.53270578    -0.17800
C989        C  0.48838433  0.05933605  0.53392769    -0.17000
C990        C  0.48501473  0.08546774  0.54670847     0.07100
C991        C  0.48245327  0.11670237  0.56098709     0.09000
C992        C  0.48181124  0.14312294  0.57359497    -0.17800
C993        C  0.26490246  0.21402444  0.69434277    -0.17000
C994        C  0.26687308  0.20161451  0.66789303     0.07100
C995        C  0.26740953  0.18764839  0.63642501     0.09000
C996        C  0.26662977  0.17521891  0.60992267    -0.17800
C997        C  0.18045969  0.10572191  0.73373903    -0.17000
C998        C  0.19255516  0.13242105  0.73464431     0.07100
C999        C  0.20554562  0.16426530  0.73693325     0.09000
C1000       C  0.21708795  0.19107291  0.73982609    -0.17800
C1001       C  0.32869365  0.39150147  0.76755426    -0.17000
C1002       C  0.31596053  0.36508949  0.76842903     0.07100
C1003       C  0.30114387  0.33396457  0.76764885     0.09000
C1004       C  0.28802540  0.30782028  0.76538829    -0.17800
C1005       C  0.30964363  0.26343527  0.71598252    -0.17000
C1006       C  0.33584504  0.26657879  0.70322222     0.07100
C1007       C  0.36712515  0.26869557  0.68889090     0.09000
C1008       C  0.39356098  0.26890111  0.67623725    -0.17800
C1009       C  0.31057381  0.47222832  0.83646318    -0.17000
C1010       C  0.29738004  0.46598911  0.86107955     0.07100
C1011       C  0.28739765  0.45606703  0.89131661     0.09000
C1012       C  0.28062019  0.44236518  0.91550590    -0.17800
C1013       C  0.19922783  0.47593235  0.16554143    -0.17000
C1014       C  0.21428975  0.46991602  0.14197714     0.07100
C1015       C  0.22436226  0.45948950  0.11196237     0.09000
C1016       C  0.22928697  0.44512439  0.08771244    -0.17800
C1017       C  0.41064729  0.27179015  0.05814028    -0.17000
C1018       C  0.38572304  0.27640997  0.04493189     0.07100
C1019       C  0.35551716  0.28651358  0.03527268     0.09000
C1020       C  0.33226123  0.30184386  0.02890760    -0.17800
C1021       C  0.06001086  0.46631760  0.00995667    -0.17000
C1022       C  0.08661212  0.45440069  0.01312892     0.07100
C1023       C  0.11830698  0.44114129  0.01571936     0.09000
C1024       C  0.14498529  0.42902963  0.01672775    -0.17800
C1025       C  0.44375737  0.46216678  0.98349340    -0.17000
C1026       C  0.41754396  0.44919350  0.98156796     0.07100
C1027       C  0.38637631  0.43449934  0.98130225     0.09000
C1028       C  0.35999466  0.42179395  0.98257411    -0.17800
C1029       C  0.23287713  0.32519048  0.89399927    -0.17000
C1030       C  0.23313627  0.31275927  0.86749202     0.07100
C1031       C  0.23521835  0.29867682  0.83614556     0.09000
C1032       C  0.23831037  0.28608297  0.80989208    -0.17800
C1033       C  0.18023076  0.39357945  0.23391905    -0.17000
C1034       C  0.19208739  0.36680697  0.23435766     0.07100
C1035       C  0.20477326  0.33481683  0.23616827     0.09000
C1036       C  0.21607725  0.30793410  0.23883296    -0.17800
C1037       C  0.23701461  0.21357332  0.30980676    -0.17000
C1038       C  0.23418116  0.20117444  0.33625462     0.07100
C1039       C  0.23247633  0.18724235  0.36775833     0.09000
C1040       C  0.23247922  0.17488306  0.39437002    -0.17800
C1041       C  0.30896877  0.23582076  0.21622755    -0.17000
C1042       C  0.33539007  0.23297452  0.20381550     0.07100
C1043       C  0.36682990  0.23125732  0.18976548     0.09000
C1044       C  0.39331533  0.23130360  0.17717461    -0.17800
C1045       C  0.32653000  0.10749358  0.26787110    -0.17000
C1046       C  0.31389639  0.13390086  0.26868784     0.07100
C1047       C  0.29941620  0.16516168  0.26780044     0.09000
C1048       C  0.28662415  0.19139733  0.26540596    -0.17800
C1049       C  0.26704523  0.32398254  0.10923006    -0.17000
C1050       C  0.26747208  0.31140422  0.13572792     0.07100
C1051       C  0.26648247  0.29729858  0.16716937     0.09000
C1052       C  0.26418713  0.28485022  0.19363606    -0.17800
C1053       C  0.91619349  0.27718587  0.44709476    -0.17000
C1054       C  0.89288676  0.28444456  0.46207655     0.07100
C1055       C  0.86329349  0.29561650  0.47277857     0.09000
C1056       C  0.83903947  0.30968208  0.47866324    -0.17800
C1057       C  0.16203883  0.18922285  0.47534053    -0.17000
C1058       C  0.13799452  0.20290430  0.46797856     0.07100
C1059       C  0.10858230  0.21363212  0.45643931     0.09000
C1060       C  0.08504195  0.22093377  0.44187888    -0.17800
C1061       C  0.05942647  0.41219895  0.27364040    -0.17000
C1062       C  0.04478424  0.38855055  0.28040247     0.07100
C1063       C  0.03306200  0.35937003  0.29153384     0.09000
C1064       C  0.02559863  0.33596235  0.30622020    -0.17800
C1065       C  0.98393158  0.35785952  0.42676334    -0.17000
C1066       C  0.98370552  0.38468023  0.43858702     0.07100
C1067       C  0.98472874  0.41662520  0.45148068     0.09000
C1068       C  0.98684357  0.44349427  0.46300848    -0.17800
C1069       C  0.80502480  0.23627282  0.28903453    -0.17000
C1070       C  0.83155595  0.23423770  0.30133319     0.07100
C1071       C  0.86318000  0.23356388  0.31497997     0.09000
C1072       C  0.88991546  0.23424925  0.32697914    -0.17800
C1073       C  0.10659641  0.26663333  0.32341628    -0.17000
C1074       C  0.13340315  0.26651958  0.31146817     0.07100
C1075       C  0.16528441  0.26494854  0.29833237     0.09000
C1076       C  0.19208622  0.26237209  0.28664476    -0.17800
C1077       C  0.80166076  0.47574141  0.66523959    -0.17000
C1078       C  0.78683625  0.47107291  0.64125056     0.07100
C1079       C  0.77692642  0.46202668  0.61078242     0.09000
C1080       C  0.77202327  0.44791559  0.58641321    -0.17800
C1081       C  0.80938380  0.52723822  0.83682620    -0.17000
C1082       C  0.79662038  0.53392162  0.86152127     0.07100
C1083       C  0.78762312  0.54445930  0.89181384     0.09000
C1084       C  0.78149418  0.55846580  0.91597172    -0.17800
C1085       C  0.92247552  0.51648881  0.63977566    -0.17000
C1086       C  0.93528420  0.51745576  0.61339629     0.07100
C1087       C  0.95008212  0.51702820  0.58221130     0.09000
C1088       C  0.96312558  0.51509908  0.55599834    -0.17800
C1089       C  0.92721382  0.48253853  0.85486667    -0.17000
C1090       C  0.93966741  0.48334698  0.88137255     0.07100
C1091       C  0.95350664  0.48586738  0.91281792     0.09000
C1092       C  0.96585703  0.48908238  0.93919384    -0.17800
C1093       C  0.82644814  0.60747827  0.76790298    -0.17000
C1094       C  0.81382084  0.63389701  0.76875094     0.07100
C1095       C  0.79935889  0.66514981  0.76788566     0.09000
C1096       C  0.78657510  0.69140038  0.76549024    -0.17800
C1097       C  0.67164809  0.10902592  0.76740343    -0.17000
C1098       C  0.68409080  0.13547882  0.76873664     0.07100
C1099       C  0.69859839  0.16668125  0.76840182     0.09000
C1100       C  0.71159146  0.19281778  0.76629480    -0.17800
C1101       C  0.76142024  0.21442828  0.81083275    -0.17000
C1102       C  0.76457282  0.20213945  0.83731171     0.07100
C1103       C  0.76693243  0.18835974  0.86886645     0.09000
C1104       C  0.76757705  0.17603375  0.89550007    -0.17800
C1105       C  0.68995237  0.23714022  0.71693630    -0.17000
C1106       C  0.66356934  0.23404944  0.70456710     0.07100
C1107       C  0.63216004  0.23183355  0.69059663     0.09000
C1108       C  0.60571335  0.23141487  0.67799529    -0.17800
C1109       C  0.73304796  0.32687749  0.61073613    -0.17000
C1110       C  0.73227971  0.31400386  0.63711408     0.07100
C1111       C  0.73294355  0.29918502  0.66828353     0.09000
C1112       C  0.73504258  0.28613797  0.69450661    -0.17800
C1113       C  0.82104196  0.39280200  0.73369254    -0.17000
C1114       C  0.80901045  0.36614829  0.73419650     0.07100
C1115       C  0.79585042  0.33444574  0.73626180     0.09000
C1116       C  0.78397820  0.30787969  0.73921464    -0.17800
C1117       C  0.52569369  0.83588108  0.80619108    -0.17000
C1118       C  0.53323683  0.85924964  0.79148558     0.07100
C1119       C  0.54502353  0.88840585  0.78036268     0.09000
C1120       C  0.55967184  0.91205811  0.77363023    -0.17800
C1121       C  0.66199648  0.68921899  0.97538134    -0.17000
C1122       C  0.63794585  0.70289202  0.96802579     0.07100
C1123       C  0.60853576  0.71362240  0.95648452     0.09000
C1124       C  0.58500439  0.72093165  0.94191433    -0.17800
C1125       C  0.46987812  0.66740785  0.80422349    -0.17000
C1126       C  0.46357156  0.64399930  0.78902160     0.07100
C1127       C  0.45410272  0.61410406  0.77767475     0.09000
C1128       C  0.44099232  0.58948094  0.77128936    -0.17800
C1129       C  0.51666121  0.64127372  0.92251825    -0.17000
C1130       C  0.51744611  0.61455962  0.93464691     0.07100
C1131       C  0.51679978  0.58293966  0.94852196     0.09000
C1132       C  0.51474615  0.55640450  0.96089800    -0.17800
C1133       C  0.69207827  0.76244125  0.78664229    -0.17000
C1134       C  0.66528087  0.76502224  0.79833586     0.07100
C1135       C  0.63340389  0.76658087  0.81148542     0.09000
C1136       C  0.60660175  0.76667551  0.82344124    -0.17800
C1137       C  0.48398600  0.85789453  0.92675007    -0.17000
C1138       C  0.48380871  0.88471520  0.93858193     0.07100
C1139       C  0.48488635  0.91665294  0.95149667     0.09000
C1140       C  0.48703542  0.94351493  0.96304230    -0.17800
C1141       C  0.16978151  0.89024614  0.76726685    -0.17000
C1142       C  0.18233239  0.86377656  0.76860358     0.07100
C1143       C  0.19713548  0.83264093  0.76833424     0.09000
C1144       C  0.21036617  0.80654200  0.76635982    -0.17800
C1145       C  0.28292443  0.69100357  0.74016160    -0.17000
C1146       C  0.29501824  0.66450610  0.73693314     0.07100
C1147       C  0.30849134  0.63291970  0.73430512     0.09000
C1148       C  0.32075512  0.60632783  0.73325373    -0.17800
C1149       C  0.30500064  0.73625520  0.78907690    -0.17000
C1150       C  0.33153513  0.73423462  0.80136841     0.07100
C1151       C  0.36316754  0.73357027  0.81500176     0.09000
C1152       C  0.38990711  0.73425797  0.82698959    -0.17800
C1153       C  0.19114615  0.53012154  0.33497456    -0.17000
C1154       C  0.20435438  0.53676696  0.35943811     0.07100
C1155       C  0.21380014  0.54644122  0.38987670     0.09000
C1156       C  0.22001650  0.55951753  0.41452622    -0.17800
C1157       C  0.27177384  0.55076379  0.58566647    -0.17000
C1158       C  0.27734624  0.53600781  0.60952136     0.07100
C1159       C  0.28785522  0.52645541  0.63965849     0.09000
C1160       C  0.30274662  0.52190966  0.66365172    -0.17800
C1161       C  0.41578194  0.72216886  0.44523894    -0.17000
C1162       C  0.39259722  0.71445706  0.46018741     0.07100
C1163       C  0.36331738  0.70296945  0.47141052     0.09000
C1164       C  0.33924165  0.68889669  0.47797115    -0.17800
C1165       C  0.35521515  0.56842915  0.51666573    -0.17000
C1166       C  0.38193774  0.55647248  0.51579327     0.07100
C1167       C  0.41385504  0.54374342  0.51342094     0.09000
C1168       C  0.44068630  0.53240008  0.51035588    -0.17800
C1169       C  0.05657499  0.53874273  0.48431622    -0.17000
C1170       C  0.08267975  0.55184716  0.48209342     0.07100
C1171       C  0.11383889  0.56648304  0.48155332     0.09000
C1172       C  0.14030890  0.57897316  0.48272761    -0.17800
C1173       C  0.23344413  0.67287418  0.61103795    -0.17000
C1174       C  0.23246595  0.68560033  0.63743176     0.07100
C1175       C  0.23277508  0.70019004  0.66869325     0.09000
C1176       C  0.23455096  0.71305736  0.69497640    -0.17800
C1177       C  0.39186225  0.76570934  0.32510177    -0.17000
C1178       C  0.36513649  0.76595252  0.31308603     0.07100
C1179       C  0.33337733  0.76483248  0.29969873     0.09000
C1180       C  0.30670450  0.76260215  0.28776735    -0.17800
C1181       C  0.28404555  0.80790373  0.23928285    -0.17000
C1182       C  0.29598576  0.83446422  0.23632124     0.07100
C1183       C  0.30920261  0.86612906  0.23423806     0.09000
C1184       C  0.32127036  0.89278935  0.23371775    -0.17800
C1185       C  0.21153338  0.69288037  0.26621357    -0.17000
C1186       C  0.19852090  0.66672574  0.26828793     0.07100
C1187       C  0.18400639  0.63554177  0.26860036     0.09000
C1188       C  0.17154393  0.60907595  0.26726278    -0.17800
C1189       C  0.26739290  0.67591415  0.39548974    -0.17000
C1190       C  0.26676027  0.68826914  0.36887027     0.07100
C1191       C  0.26442799  0.70210046  0.33731843     0.09000
C1192       C  0.26130800  0.71442378  0.31085372    -0.17800
C1193       C  0.83145621  0.69910001  0.02974624    -0.17000
C1194       C  0.85497162  0.71415265  0.03590082     0.07100
C1195       C  0.88552854  0.72369491  0.04513745     0.09000
C1196       C  0.91073410  0.72792399  0.05798409    -0.17800
C1197       C  0.02199220  0.66072786  0.19228507    -0.17000
C1198       C  0.02750464  0.63559835  0.20483447     0.07100
C1199       C  0.03830535  0.60521166  0.21336728     0.09000
C1200       C  0.05353620  0.58165583  0.21904365    -0.17800
C1201       C  0.98185621  0.64337352  0.07337859    -0.17000
C1202       C  0.98252907  0.61695061  0.06077311     0.07100
C1203       C  0.98511390  0.58570881  0.04651385     0.09000
C1204       C  0.98849030  0.55956872  0.03374767    -0.17800
C1205       C  0.89346682  0.76902568  0.17612897    -0.17000
C1206       C  0.86702141  0.76881537  0.18879164     0.07100
C1207       C  0.83575850  0.76669389  0.20313614     0.09000
C1208       C  0.80955256  0.76353935  0.21591671    -0.17800
C1209       C  0.10567500  0.73155484  0.17799000    -0.17000
C1210       C  0.13212200  0.73198286  0.19057444     0.07100
C1211       C  0.16355360  0.73420097  0.20453636     0.09000
C1212       C  0.18993241  0.73727675  0.21689838    -0.17800
C1213       C  0.16769519  0.80447664  0.03097999    -0.17000
C1214       C  0.14433857  0.78912420  0.03694419     0.07100
C1215       C  0.11422908  0.77808688  0.04589110     0.09000
C1216       C  0.08932699  0.77234162  0.05869643    -0.17800
C1217       C  0.33903628  0.80968172  0.97865367    -0.17000
C1218       C  0.36327941  0.79559538  0.97277400     0.07100
C1219       C  0.39287249  0.78441894  0.96207603     0.09000
C1220       C  0.41618362  0.77716835  0.94709702    -0.17800
C1221       C  0.27239253  0.94819109  0.08622321    -0.17000
C1222       C  0.27733265  0.96230943  0.11057909     0.07100
C1223       C  0.28721211  0.97128131  0.14107728     0.09000
C1224       C  0.30197194  0.97584914  0.16512468    -0.17800
C1225       C  0.18935723  0.96971382  0.83530996    -0.17000
C1226       C  0.20300110  0.96325352  0.85960914     0.07100
C1227       C  0.21368588  0.95375890  0.88972615     0.09000
C1228       C  0.22089240  0.94072321  0.91414802    -0.17800
C1229       C  0.25988401  0.78480574  0.81131580    -0.17000
C1230       C  0.26323054  0.79709501  0.83770731     0.07100
C1231       C  0.26599735  0.81088511  0.86918160     0.09000
C1232       C  0.26701361  0.82328701  0.89570749    -0.17800
C1233       C  0.23319762  0.82715769  0.11082659    -0.17000
C1234       C  0.23240501  0.81425557  0.13718560     0.07100
C1235       C  0.23303240  0.79937092  0.16833992     0.09000
C1236       C  0.23509663  0.78627638  0.19453686    -0.17800
C1237       C  0.44129964  0.96666189  0.01098182    -0.17000
C1238       C  0.41461654  0.95499267  0.01393954     0.07100
C1239       C  0.38281401  0.94202311  0.01615334     0.09000
C1240       C  0.35611193  0.93005116  0.01685050    -0.17800
C1241       C  0.05202566  0.91925338  0.71796648    -0.17000
C1242       C  0.03675695  0.89581541  0.71207256     0.07100
C1243       C  0.02646060  0.86530424  0.70355257     0.09000
C1244       C  0.02153605  0.83997924  0.69121795    -0.17800
C1245       C  0.94465915  0.58263488  0.71973074    -0.17000
C1246       C  0.95965043  0.60629049  0.71396177     0.07100
C1247       C  0.97047314  0.63656430  0.70522052     0.09000
C1248       C  0.97628570  0.66148514  0.69245144    -0.17800
C1249       C  0.16825379  0.69685188  0.53117816    -0.17000
C1250       C  0.14466052  0.71184424  0.53725821     0.07100
C1251       C  0.11424577  0.72208295  0.54630333     0.09000
C1252       C  0.08913110  0.72724880  0.55900976    -0.17800
C1253       C  0.83220421  0.80169722  0.52888527    -0.17000
C1254       C  0.85543983  0.78635845  0.53530264     0.07100
C1255       C  0.88562831  0.77625826  0.54501732     0.09000
C1256       C  0.91054793  0.77165796  0.55824121    -0.17800
C1257       C  0.10554566  0.76872407  0.67736176    -0.17000
C1258       C  0.13198371  0.76815166  0.68993711     0.07100
C1259       C  0.16326407  0.76564778  0.70404793     0.09000
C1260       C  0.18947031  0.76230887  0.71668806    -0.17800
C1261       C  0.01844729  0.64381027  0.57369583    -0.17000
C1262       C  0.01806368  0.61740519  0.56102529     0.07100
C1263       C  0.01575553  0.58615140  0.54676796     0.09000
C1264       C  0.01251590  0.55994549  0.53408307    -0.17800
C1265       C  0.89333735  0.73122093  0.67729097    -0.17000
C1266       C  0.86685550  0.73118021  0.68988370     0.07100
C1267       C  0.83541261  0.73291159  0.70392174     0.09000
C1268       C  0.80898736  0.73577530  0.71631511    -0.17800
C1269       C  0.85990955  0.92166557  0.48253115    -0.17000
C1270       C  0.88628105  0.93438827  0.48130395     0.07100
C1271       C  0.91744276  0.94911905  0.48162158     0.09000
C1272       C  0.94363649  0.96211785  0.48357858    -0.17800
C1273       C  0.06017267  0.03314402  0.50932150    -0.17000
C1274       C  0.08691802  0.04466019  0.51254659     0.07100
C1275       C  0.11875785  0.05752960  0.51526489     0.09000
C1276       C  0.14545944  0.06952033  0.51643574    -0.17800
C1277       C  0.07719101  0.98361159  0.63846839    -0.17000
C1278       C  0.06473324  0.98258862  0.61199097     0.07100
C1279       C  0.05044032  0.98294193  0.58065217     0.09000
C1280       C  0.03771734  0.98486732  0.55435334    -0.17800
C1281       C  0.01459743  0.05639579  0.46097450    -0.17000
C1282       C  0.01667249  0.08294349  0.44856839     0.07100
C1283       C  0.01735700  0.11453558  0.43467620     0.09000
C1284       C  0.01660881  0.14126498  0.42252351    -0.17800
C1285       C  0.98810966  0.94019268  0.53276445    -0.17000
C1286       C  0.98476720  0.91395670  0.54551143     0.07100
C1287       C  0.98223699  0.88269647  0.55986439     0.09000
C1288       C  0.98155381  0.85626501  0.57261472    -0.17800
C1289       C  0.94091409  0.08947838  0.27141603    -0.17000
C1290       C  0.95404187  0.11410046  0.27775798     0.07100
C1291       C  0.96353034  0.14400580  0.28905068     0.09000
C1292       C  0.96985056  0.16742064  0.30423185    -0.17800
C1293       C  0.80274722  0.02203738  0.16368942    -0.17000
C1294       C  0.78788171  0.02662929  0.13969081     0.07100
C1295       C  0.77742145  0.03621745  0.10955081     0.09000
C1296       C  0.77188602  0.05097997  0.08569290    -0.17800
C1297       C  0.81031022  0.97226139  0.33645016    -0.17000
C1298       C  0.79708482  0.96594355  0.36103176     0.07100
C1299       C  0.78710209  0.95593219  0.39124269     0.09000
C1300       C  0.78036234  0.94219633  0.41542603    -0.17800
C1301       C  0.97711136  0.83965076  0.19053530    -0.17000
C1302       C  0.97211968  0.86473858  0.20330227     0.07100
C1303       C  0.96200815  0.89505504  0.21264117     0.09000
C1304       C  0.94700150  0.91850472  0.21908830    -0.17800
C1305       C  0.82852015  0.89157544  0.26758799    -0.17000
C1306       C  0.81579819  0.86516764  0.26843863     0.07100
C1307       C  0.80099850  0.83402949  0.26763034     0.09000
C1308       C  0.78790318  0.80788695  0.26534779    -0.17800
C1309       C  0.82072883  0.10638577  0.23323354    -0.17000
C1310       C  0.80847131  0.13297858  0.23425772     0.07100
C1311       C  0.79500465  0.16456543  0.23687124     0.09000
C1312       C  0.78291729  0.19106234  0.24010298    -0.17800
C1313       C  0.92738915  0.01828390  0.35436776    -0.17000
C1314       C  0.93968182  0.01759661  0.38093271     0.07100
C1315       C  0.95334166  0.01505485  0.41245638     0.09000
C1316       C  0.96558265  0.01170235  0.43884461    -0.17800
C1317       C  0.16266071  0.30972394  0.97541988    -0.17000
C1318       C  0.13838244  0.29599697  0.96904223     0.07100
C1319       C  0.10852654  0.28553863  0.95852036     0.09000
C1320       C  0.08474600  0.27866913  0.94417727    -0.17800
C1321       C  0.05928624  0.08817389  0.77243195    -0.17000
C1322       C  0.04527727  0.11201730  0.77977878     0.07100
C1323       C  0.03467055  0.14127791  0.79174558     0.09000
C1324       C  0.02787964  0.16463581  0.80681746    -0.17800
C1325       C  0.97264989  0.33375293  0.80430365    -0.17000
C1326       C  0.96594198  0.35728152  0.78943468     0.07100
C1327       C  0.95544811  0.38703287  0.77855324     0.09000
C1328       C  0.94154016  0.41128842  0.77238408    -0.17800
C1329       C  0.91574221  0.22255503  0.94516653    -0.17000
C1330       C  0.89255564  0.21486078  0.96012228     0.07100
C1331       C  0.86330236  0.20333459  0.97137870     0.09000
C1332       C  0.83927046  0.18920369  0.97797679    -0.17800
C1333       C  0.19369682  0.23672756  0.78793705    -0.17000
C1334       C  0.16709827  0.23433396  0.80010725     0.07100
C1335       C  0.13537653  0.23312244  0.81370000     0.09000
C1336       C  0.10861363  0.23336994  0.82574060    -0.17800
C1337       C  0.01673216  0.35888740  0.92357679    -0.17000
C1338       C  0.01733785  0.38564048  0.93555157     0.07100
C1339       C  0.01656093  0.41733539  0.94913403     0.09000
C1340       C  0.01448791  0.44390584  0.96134898    -0.17800
C1341       C  0.80676427  0.26258971  0.78765330    -0.17000
C1342       C  0.83346421  0.26483155  0.79954880     0.07100
C1343       C  0.86522674  0.26596415  0.81289542     0.09000
C1344       C  0.89196584  0.26574204  0.82490538    -0.17800
C1345       C  0.94086769  0.03269061  0.01056311    -0.17000
C1346       C  0.91402627  0.04404748  0.01362529     0.07100
C1347       C  0.88212496  0.05677134  0.01597363     0.09000
C1348       C  0.85538635  0.06872468  0.01681384    -0.17800
C1349       C  0.03475156  0.01174849  0.93902723    -0.17000
C1350       C  0.04680069  0.01488772  0.91246478     0.07100
C1351       C  0.06039391  0.01712217  0.88081197     0.09000
C1352       C  0.07268555  0.01762923  0.85418442    -0.17800
C1353       C  0.01901045  0.85566441  0.07218286    -0.17000
C1354       C  0.01867740  0.88209325  0.05949015     0.07100
C1355       C  0.01644064  0.91346911  0.04534675     0.09000
C1356       C  0.01320549  0.93981171  0.03287730    -0.17800
C1357       C  0.05737947  0.96231795  0.98360576    -0.17000
C1358       C  0.08372826  0.94965351  0.98145574     0.07100
C1359       C  0.11504677  0.93533835  0.98100921     0.09000
C1360       C  0.14152777  0.92283519  0.98224215    -0.17800
C1361       C  0.96373839  0.98433730  0.05536235    -0.17000
C1362       C  0.95100367  0.98234362  0.08169656     0.07100
C1363       C  0.93654795  0.98196955  0.11301709     0.09000
C1364       C  0.92390224  0.98302989  0.13944812    -0.17800
C1365       C  0.98643202  0.05676466  0.96274252    -0.17000
C1366       C  0.98427739  0.08364398  0.95119990     0.07100
C1367       C  0.98335394  0.11558302  0.93818082     0.09000
C1368       C  0.98376881  0.14239225  0.92629346    -0.17800
loop_ 
_geom_bond_atom_site_label_1 
_geom_bond_atom_site_label_2 
_geom_bond_distance 
_geom_bond_site_symmetry_2 
_ccdc_geom_bond_type 
C1            C2   1.424   1_554  A
C1            C6   1.423   1_545  A
C1         C1345   1.468       .  S
C2            C3   1.424   1_655  A
C2         C1365   1.471       .  S
C3            C4   1.425   1_545  A
C3         C1349   1.472       .  S
C4            C5   1.425   1_556  A
C4         C1357   1.468       .  S
C5            C6   1.423   1_455  A
C5         C1356   1.471       .  S
C6         C1361   1.471       .  S
O7           C15   1.277       .  A
O7          Co27   2.023       .  S
O8           C16   1.277       .  A
O8          Co28   2.024       .  S
O9           C17   1.258       .  A
O9          Co29   1.983       .  S
O10          C18   1.259       .  A
O10         Co30   1.984       .  S
O11          C17   1.263       .  A
O11         Co28   2.033       .  S
O12          C18   1.264       .  A
O12         Co27   2.036       .  S
O13          C16   1.259   1_455  A
O13         Co30   1.937       .  S
O14          C15   1.259   1_655  A
O14         Co29   1.936       .  S
C15        C1324   1.408       .  S
C16        C1325   1.409       .  S
C17        C1344   1.457       .  S
C18        C1336   1.460       .  S
O19          C32   1.260       .  A
O19         Co27   1.937       .  S
O20          C33   1.260       .  A
O20         Co28   1.939       .  S
O21          C34   1.263       .  A
O21         Co29   2.033       .  S
O22          C35   1.264       .  A
O22         Co30   2.035       .  S
O23          C35   1.259       .  A
O23         Co28   1.983   1_455  S
O24          C34   1.259       .  A
O24         Co27   1.985   1_655  S
O25          C32   1.277       .  A
O25         Co30   2.021       .  S
O26          C33   1.277       .  A
O26         Co29   2.023       .  S
Co27         O31   2.101       .  S
Co28         O31   2.101   1_655  S
Co29         O31   2.099   1_655  S
Co30         O31   2.100       .  S
C32        C1320   1.408       .  S
C33        C1329   1.410       .  S
C34        C1368   1.458       .  S
C35        C1337   1.458       .  S
O36          C44   1.277       .  A
O36         Co56   2.024       .  S
O37          C45   1.276       .  A
O37         Co57   2.020       .  S
O38          C46   1.257       .  A
O38         Co58   1.979       .  S
O39          C47   1.258       .  A
O39         Co59   1.981       .  S
O40          C46   1.265       .  A
O40         Co57   2.040       .  S
O41          C47   1.263       .  A
O41         Co56   2.032       .  S
O42          C45   1.260   1_545  A
O42         Co59   1.938       .  S
O43          C44   1.257   1_565  A
O43         Co58   1.934       .  S
C44        C1293   1.407       .  S
C45        C1297   1.408       .  S
C46        C1305   1.458       .  S
C47        C1309   1.455       .  S
O48          C61   1.259       .  A
O48         Co56   1.938       .  S
O49          C62   1.257       .  A
O49         Co57   1.934       .  S
O50          C63   1.265       .  A
O50         Co58   2.038       .  S
O51          C64   1.263       .  A
O51         Co59   2.033       .  S
O52          C64   1.257       .  A
O52         Co57   1.980   1_545  S
O53          C63   1.258   1_545  A
O53         Co56   1.982       .  S
O54          C61   1.276       .  A
O54         Co59   2.020       .  S
O55          C62   1.276       .  A
O55         Co58   2.021       .  S
Co56         O60   2.101       .  S
Co57         O60   2.100   1_565  S
Co58         O60   2.097   1_565  S
Co59         O60   2.100       .  S
C61        C1289   1.408       .  S
C62        C1304   1.406       .  S
C63        C1364   1.458       .  S
C64        C1313   1.456       .  S
C65          C66   1.424       .  A
C65          C70   1.423   1_545  A
C65        C1273   1.469       .  S
C66          C67   1.425   1_455  A
C66        C1281   1.472       .  S
C67          C68   1.425   1_545  A
C67        C1316   1.469       .  S
C68          C69   1.424       .  A
C68        C1272   1.470       .  S
C69          C70   1.424   1_655  A
C69        C1285   1.471       .  S
C70        C1280   1.469       .  S
O71          C79   1.274       .  A
O71         Co91   2.016       .  S
O72          C80   1.274       .  A
O72         Co92   2.016       .  S
O73          C81   1.259       .  A
O73         Co93   1.980       .  S
O74          C82   1.258       .  A
O74         Co94   1.977       .  S
O75          C81   1.266       .  A
O75         Co92   2.039       .  S
O76          C82   1.265       .  A
O76         Co91   2.037       .  S
O77          C80   1.257   1_455  A
O77         Co94   1.938       .  S
O78          C79   1.257   1_655  A
O78         Co93   1.938       .  S
C79        C1244   1.406       .  S
C80        C1248   1.407       .  S
C81        C1265   1.457       .  S
C82        C1257   1.454       .  S
O83          C96   1.257       .  A
O83         Co91   1.939       .  S
O84          C97   1.256       .  A
O84         Co92   1.936       .  S
O85          C98   1.266       .  A
O85         Co93   2.041       .  S
O86          C99   1.265       .  A
O86         Co94   2.038       .  S
O87          C99   1.258       .  A
O87         Co92   1.978   1_455  S
O88          C98   1.259       .  A
O88         Co91   1.980   1_655  S
O89          C96   1.274       .  A
O89         Co94   2.017       .  S
O90          C97   1.274       .  A
O90         Co93   2.016       .  S
Co91         O95   2.102   1_455  S
Co92         O95   2.100       .  S
Co93         O95   2.103       .  S
Co94         O95   2.102   1_455  S
C96        C1252   1.408       .  S
C97        C1256   1.406       .  S
C98        C1288   1.458       .  S
C99        C1261   1.455       .  S
O100        C108   1.276       .  A
O100       Co120   2.021       .  S
O101        C109   1.277       .  A
O101       Co121   2.023       .  S
O102        C110   1.258       .  A
O102       Co122   1.980       .  S
O103        C111   1.258       .  A
O103       Co123   1.982       .  S
O104        C110   1.264       .  A
O104       Co121   2.034       .  S
O105        C111   1.265       .  A
O105       Co120   2.041       .  S
O106        C109   1.260   1_554  A
O106       Co123   1.938       .  S
O107        C108   1.257       .  A
O107       Co122   1.933   1_554  S
C108       C1213   1.406       .  S
C109       C1217   1.410       .  S
C110       C1232   1.457       .  S
C111       C1233   1.460       .  S
O112        C125   1.256       .  A
O112       Co120   1.934       .  S
O113        C126   1.260       .  A
O113       Co121   1.939       .  S
O114        C127   1.265       .  A
O114       Co122   2.038       .  S
O115        C128   1.263       .  A
O115       Co123   2.030       .  S
O116        C128   1.258       .  A
O116       Co121   1.982   1_554  S
O117        C127   1.257       .  A
O117       Co120   1.980   1_556  S
O118        C125   1.277       .  A
O118       Co123   2.022       .  S
O119        C126   1.276       .  A
O119       Co122   2.019       .  S
Co120       O124   2.100       .  S
Co121       O124   2.102   1_556  S
Co122       O124   2.098   1_556  S
Co123       O124   2.099       .  S
C125       C1221   1.406       .  S
C126       C1228   1.407       .  S
C127       C1360   1.456       .  S
C128       C1240   1.454       .  S
O129        C137   1.257   1_455  A
O129       Co149   1.937       .  S
O130        C138   1.258   1_655  A
O130       Co150   1.940       .  S
O131        C139   1.266       .  A
O131       Co151   2.040       .  S
O132        C140   1.265       .  A
O132       Co152   2.038       .  S
O133        C139   1.258       .  A
O133       Co150   1.979       .  S
O134        C140   1.258       .  A
O134       Co149   1.979       .  S
O135        C138   1.274       .  A
O135       Co152   2.017       .  S
O136        C137   1.274       .  A
O136       Co151   2.015       .  S
C137       C1301   1.406       .  S
C138       C1197   1.409       .  S
C139       C1205   1.457       .  S
C140       C1209   1.456       .  S
O141        C154   1.274       .  A
O141       Co149   2.015       .  S
O142        C155   1.274       .  A
O142       Co150   2.018       .  S
O143        C156   1.258       .  A
O143       Co151   1.980   1_455  S
O144        C157   1.258       .  A
O144       Co152   1.978   1_655  S
O145        C157   1.265       .  A
O145       Co150   2.038       .  S
O146        C156   1.266       .  A
O146       Co149   2.040       .  S
O147        C154   1.257       .  A
O147       Co152   1.937       .  S
O148        C155   1.257       .  A
O148       Co151   1.937       .  S
Co149       O153   2.101   1_455  S
Co150       O153   2.103       .  S
Co151       O153   2.102       .  S
Co152       O153   2.101   1_455  S
C154       C1216   1.406       .  S
C155       C1196   1.407       .  S
C156       C1353   1.458       .  S
C157       C1201   1.455       .  S
C158        C159   1.425       .  A
C158        C163   1.425       .  A
C158       C1185   1.467       .  S
C159        C160   1.423       .  A
C159       C1212   1.470       .  S
C160        C161   1.423       .  A
C160       C1236   1.473       .  S
C161        C162   1.424       .  A
C161       C1181   1.466       .  S
C162        C163   1.423       .  A
C162       C1180   1.470       .  S
C163       C1192   1.472       .  S
O164        C172   1.258       .  A
O164       Co184   1.936       .  S
O165        C173   1.260       .  A
O165       Co185   1.939       .  S
O166        C174   1.264       .  A
O166       Co186   2.038       .  S
O167        C175   1.264       .  A
O167       Co187   2.037       .  S
O168        C174   1.258       .  A
O168       Co185   1.983       .  S
O169        C175   1.259       .  A
O169       Co184   1.982       .  S
O170        C173   1.277       .  A
O170       Co187   2.022       .  S
O171        C172   1.277       .  A
O171       Co186   2.023       .  S
C172       C1249   1.408       .  S
C173       C1164   1.410       .  S
C174       C1173   1.458       .  S
C175       C1189   1.459       .  S
O176        C189   1.276       .  A
O176       Co184   2.019       .  S
O177        C190   1.277       .  A
O177       Co185   2.024       .  S
O178        C191   1.257       .  A
O178       Co186   1.979       .  S
O179        C192   1.258       .  A
O179       Co187   1.983       .  S
O180        C192   1.263       .  A
O180       Co185   2.030       .  S
O181        C191   1.264       .  A
O181       Co184   2.038       .  S
O182        C189   1.259       .  A
O182       Co187   1.937       .  S
O183        C190   1.257       .  A
O183       Co186   1.934       .  S
Co184       O188   2.100       .  S
Co185       O188   2.099       .  S
Co186       O188   2.099       .  S
Co187       O188   2.101       .  S
C189       C1156   1.406       .  S
C190       C1157   1.408       .  S
C191       C1172   1.455       .  S
C192       C1165   1.455       .  S
C193        C194   1.425       .  A
C193        C198   1.424       .  A
C193       C1144   1.470       .  S
C194        C195   1.424       .  A
C194       C1260   1.468       .  S
C195        C196   1.423       .  A
C195       C1176   1.471       .  S
C196        C197   1.424       .  A
C196       C1145   1.469       .  S
C197        C198   1.424       .  A
C197       C1149   1.469       .  S
C198       C1229   1.470       .  S
O199        C207   1.277       .  A
O199       Co219   2.024       .  S
O200        C208   1.277       .  A
O200       Co220   2.022       .  S
O201        C209   1.258       .  A
O201       Co221   1.984       .  S
O202        C210   1.259       .  A
O202       Co222   1.985       .  S
O203        C209   1.264       .  A
O203       Co220   2.037       .  S
O204        C210   1.263       .  A
O204       Co219   2.031       .  S
O205        C208   1.260       .  A
O205       Co222   1.938       .  S
O206        C207   1.260       .  A
O206       Co221   1.939       .  S
C207       C1220   1.410       .  S
C208       C1124   1.409       .  S
C209       C1129   1.460       .  S
C210       C1137   1.457       .  S
O211        C224   1.260       .  A
O211       Co219   1.938       .  S
O212        C225   1.259       .  A
O212       Co220   1.936       .  S
O213        C226   1.263       .  A
O213       Co221   2.034       .  S
O214        C227   1.263       .  A
O214       Co222   2.034       .  S
O215        C227   1.259       .  A
O215       Co220   1.984       .  S
O216        C226   1.258       .  A
O216       Co219   1.983       .  S
O217        C224   1.277       .  A
O217       Co222   2.022       .  S
O218        C225   1.278       .  A
O218       Co221   2.024       .  S
Co219       O223   2.100       .  S
Co220       O223   2.100       .  S
Co221       O223   2.101       .  S
Co222       O223   2.100       .  S
C224       C1117   1.409       .  S
C225       C1125   1.408       .  S
C226       C1152   1.456       .  S
C227       C1136   1.459       .  S
C228        C229   1.423       .  A
C228        C233   1.424       .  A
C228       C1112   1.472       .  S
C229        C230   1.424       .  A
C229       C1116   1.466       .  S
C230        C231   1.424       .  A
C230       C1341   1.470       .  S
C231        C232   1.425       .  A
C231       C1101   1.472       .  S
C232        C233   1.425       .  A
C232       C1100   1.467       .  S
C233       C1105   1.469       .  S
O234        C242   1.277       .  A
O234       Co254   2.022       .  S
O235        C243   1.277       .  A
O235       Co255   2.022       .  S
O236        C244   1.258       .  A
O236       Co256   1.982       .  S
O237        C245   1.258       .  A
O237       Co257   1.980       .  S
O238        C244   1.265       .  A
O238       Co255   2.040       .  S
O239        C245   1.264       .  A
O239       Co254   2.034       .  S
O240        C243   1.258       .  A
O240       Co257   1.934       .  S
O241        C242   1.260       .  A
O241       Co256   1.938       .  S
C242       C1328   1.409       .  S
C243       C1245   1.407       .  S
C244       C1085   1.459       .  S
C245       C1089   1.456       .  S
O246        C259   1.259       .  A
O246       Co254   1.938       .  S
O247        C260   1.256       .  A
O247       Co255   1.933       .  S
O248        C261   1.263       .  A
O248       Co256   2.030       .  S
O249        C262   1.264       .  A
O249       Co257   2.037       .  S
O250        C262   1.257       .  A
O250       Co255   1.979       .  S
O251        C261   1.258       .  A
O251       Co254   1.981       .  S
O252        C259   1.276       .  A
O252       Co257   2.019       .  S
O253        C260   1.277       .  A
O253       Co256   2.024       .  S
Co254       O258   2.100       .  S
Co255       O258   2.098       .  S
Co256       O258   2.099       .  S
Co257       O258   2.098       .  S
C259       C1081   1.406       .  S
C260       C1077   1.406       .  S
C261       C1113   1.453       .  S
C262       C1093   1.456       .  S
O263        C271   1.259   1_455  A
O263       Co283   1.936       .  S
O264        C272   1.260   1_655  A
O264       Co284   1.938       .  S
O265        C273   1.263       .  A
O265       Co285   2.034       .  S
O266        C274   1.263       .  A
O266       Co286   2.034       .  S
O267        C273   1.258       .  A
O267       Co284   1.983       .  S
O268        C274   1.259       .  A
O268       Co283   1.984       .  S
O269        C272   1.277       .  A
O269       Co286   2.023       .  S
O270        C271   1.278       .  A
O270       Co285   2.024       .  S
C271       C1292   1.408       .  S
C272       C1064   1.409       .  S
C273       C1072   1.456       .  S
C274       C1073   1.459       .  S
O275        C288   1.277       .  A
O275       Co283   2.022       .  S
O276        C289   1.277       .  A
O276       Co284   2.024       .  S
O277        C290   1.259       .  A
O277       Co285   1.984   1_455  S
O278        C291   1.259       .  A
O278       Co286   1.985   1_655  S
O279        C291   1.263       .  A
O279       Co284   2.031       .  S
O280        C290   1.264       .  A
O280       Co283   2.037       .  S
O281        C288   1.260       .  A
O281       Co286   1.938       .  S
O282        C289   1.260       .  A
O282       Co285   1.939       .  S
Co283       O287   2.100   1_455  S
Co284       O287   2.100       .  S
Co285       O287   2.101       .  S
Co286       O287   2.100   1_455  S
C288       C1060   1.409       .  S
C289       C1053   1.410       .  S
C290       C1284   1.459       .  S
C291       C1065   1.457       .  S
C292        C293   1.425       .  A
C292        C297   1.424       .  A
C292       C1048   1.470       .  S
C293        C294   1.425       .  A
C293       C1037   1.471       .  S
C294        C295   1.424       .  A
C294       C1076   1.471       .  S
C295        C296   1.423       .  A
C295       C1036   1.469       .  S
C296        C297   1.424       .  A
C296       C1052   1.470       .  S
C297       C1041   1.470       .  S
O298        C306   1.259   1_554  A
O298       Co318   1.937       .  S
O299        C307   1.257   1_556  A
O299       Co319   1.933       .  S
O300        C308   1.264       .  A
O300       Co320   2.035       .  S
O301        C309   1.264       .  A
O301       Co321   2.037       .  S
O302        C308   1.257       .  A
O302       Co319   1.979       .  S
O303        C309   1.258       .  A
O303       Co318   1.983       .  S
O304        C307   1.277       .  A
O304       Co321   2.022       .  S
O305        C306   1.276       .  A
O305       Co320   2.021       .  S
C306       C1317   1.408       .  S
C307       C1020   1.406       .  S
C308       C1029   1.455       .  S
C309       C1049   1.457       .  S
O310        C323   1.277       .  A
O310       Co318   2.023       .  S
O311        C324   1.276       .  A
O311       Co319   2.021       .  S
O312        C325   1.258       .  A
O312       Co320   1.982   1_554  S
O313        C326   1.257   1_554  A
O313       Co321   1.980       .  S
O314        C326   1.264       .  A
O314       Co319   2.038       .  S
O315        C325   1.263       .  A
O315       Co318   2.032       .  S
O316        C323   1.258       .  A
O316       Co321   1.935       .  S
O317        C324   1.259       .  A
O317       Co320   1.938       .  S
Co318       O322   2.100       .  S
Co319       O322   2.099   1_556  S
Co320       O322   2.101   1_556  S
Co321       O322   2.098       .  S
C323       C1016   1.408       .  S
C324       C1012   1.408       .  S
C325       C1024   1.456       .  S
C326       C1028   1.457       .  S
C327        C328   1.424       .  A
C327        C332   1.423       .  A
C327        C993   1.468       .  S
C328        C329   1.424       .  A
C328       C1000   1.470       .  S
C329        C330   1.425       .  A
C329       C1333   1.472       .  S
C330        C331   1.425       .  A
C330       C1032   1.468       .  S
C331        C332   1.424       .  A
C331       C1004   1.471       .  S
C332       C1005   1.470       .  S
O333        C341   1.274       .  A
O333       Co353   2.015       .  S
O334        C342   1.274       .  A
O334       Co354   2.017       .  S
O335        C343   1.258       .  A
O335       Co355   1.978       .  S
O336        C344   1.259       .  A
O336       Co356   1.980       .  S
O337        C343   1.265       .  A
O337       Co354   2.038       .  S
O338        C344   1.266       .  A
O338       Co353   2.040       .  S
O339        C342   1.257       .  A
O339       Co356   1.937       .  S
O340        C341   1.257       .  A
O340       Co355   1.937       .  S
C341        C969   1.406       .  S
C342        C977   1.407       .  S
C343        C992   1.455       .  S
C344        C985   1.457       .  S
O345        C358   1.257       .  A
O345       Co353   1.937       .  S
O346        C359   1.258       .  A
O346       Co354   1.940       .  S
O347        C360   1.266       .  A
O347       Co355   2.038       .  S
O348        C361   1.266       .  A
O348       Co356   2.040       .  S
O349        C361   1.258       .  A
O349       Co354   1.979       .  S
O350        C360   1.258       .  A
O350       Co353   1.979       .  S
O351        C358   1.274       .  A
O351       Co356   2.015       .  S
O352        C359   1.274       .  A
O352       Co355   2.017       .  S
Co353       O357   2.101       .  S
Co354       O357   2.103       .  S
Co355       O357   2.101       .  S
Co356       O357   2.102       .  S
C358        C984   1.406       .  S
C359        C973   1.408       .  S
C360       C1108   1.456       .  S
C361       C1008   1.457       .  S
O362        C370   1.256   1_545  A
O362       Co382   1.933       .  S
O363        C371   1.259   1_565  A
O363       Co383   1.938       .  S
O364        C372   1.263       .  A
O364       Co384   2.030       .  S
O365        C373   1.264       .  A
O365       Co385   2.037       .  S
O366        C372   1.258       .  A
O366       Co383   1.981       .  S
O367        C373   1.257       .  A
O367       Co382   1.980       .  S
O368        C371   1.276       .  A
O368       Co385   2.019       .  S
O369        C370   1.277       .  A
O369       Co384   2.024       .  S
C370       C1224   1.406       .  S
C371        C957   1.406       .  S
C372       C1184   1.453       .  S
C373       C1045   1.456       .  S
O374        C387   1.276       .  A
O374       Co382   2.022       .  S
O375        C388   1.277       .  A
O375       Co383   2.021       .  S
O376        C389   1.258   1_565  A
O376       Co384   1.982       .  S
O377        C390   1.258       .  A
O377       Co385   1.980   1_565  S
O378        C390   1.264       .  A
O378       Co383   2.034       .  S
O379        C389   1.265       .  A
O379       Co382   2.040       .  S
O380        C387   1.258       .  A
O380       Co385   1.934       .  S
O381        C388   1.259       .  A
O381       Co384   1.938       .  S
Co382       O386   2.098   1_545  S
Co383       O386   2.100       .  S
Co384       O386   2.099       .  S
Co385       O386   2.098   1_545  S
C387        C956   1.406       .  S
C388        C952   1.409       .  S
C389        C961   1.459       .  S
C390        C965   1.456       .  S
C391        C392   1.424       .  A
C391        C396   1.423       .  A
C391        C989   1.469       .  S
C392        C393   1.425   1_545  A
C392        C937   1.471       .  S
C393        C394   1.425       .  A
C393        C968   1.469       .  S
C394        C395   1.424       .  A
C394        C945   1.471       .  S
C395        C396   1.423   1_565  A
C395        C933   1.470       .  S
C396        C941   1.469       .  S
O397        C405   1.260       .  A
O397       Co417   1.939       .  S
O398        C406   1.260       .  A
O398       Co418   1.937       .  S
O399        C407   1.263       .  A
O399       Co419   2.033       .  S
O400        C408   1.264       .  A
O400       Co420   2.035       .  S
O401        C407   1.259       .  A
O401       Co418   1.985       .  S
O402        C408   1.259       .  A
O402       Co417   1.984       .  S
O403        C406   1.277       .  A
O403       Co420   2.021       .  S
O404        C405   1.277       .  A
O404       Co419   2.023       .  S
C405       C1161   1.410       .  S
C406        C921   1.408       .  S
C407        C925   1.458       .  S
C408        C948   1.458       .  S
O409        C422   1.277       .  A
O409       Co417   2.024       .  S
O410        C423   1.277       .  A
O410       Co418   2.023       .  S
O411        C424   1.258       .  A
O411       Co419   1.983       .  S
O412        C425   1.259       .  A
O412       Co420   1.984       .  S
O413        C425   1.264       .  A
O413       Co418   2.036       .  S
O414        C424   1.263       .  A
O414       Co417   2.033       .  S
O415        C422   1.259       .  A
O415       Co420   1.937       .  S
O416        C423   1.259       .  A
O416       Co419   1.936       .  S
Co417       O421   2.101       .  S
Co418       O421   2.101       .  S
Co419       O421   2.099       .  S
Co420       O421   2.100       .  S
C422        C949   1.409       .  S
C423        C920   1.408       .  S
C424       C1177   1.457       .  S
C425        C929   1.459       .  S
O426        C434   1.260       .  A
O426       Co446   1.937       .  S
O427        C435   1.258       .  A
O427       Co447   1.936       .  S
O428        C436   1.264       .  A
O428       Co448   2.037       .  S
O429        C437   1.264       .  A
O429       Co449   2.035       .  S
O430        C436   1.258       .  A
O430       Co447   1.982   1_565  S
O431        C437   1.258   1_565  A
O431       Co446   1.981       .  S
O432        C435   1.278       .  A
O432       Co449   2.025       .  S
O433        C434   1.277       .  A
O433       Co448   2.022       .  S
C434       C1120   1.409       .  S
C435        C976   1.408       .  S
C436        C913   1.459       .  S
C437        C944   1.456       .  S
O438        C451   1.278       .  A
O438       Co446   2.025       .  S
O439        C452   1.276       .  A
O439       Co447   2.020       .  S
O440        C453   1.259       .  A
O440       Co448   1.984       .  S
O441        C454   1.257       .  A
O441       Co449   1.979       .  S
O442        C454   1.263       .  A
O442       Co447   2.035       .  S
O443        C453   1.262       .  A
O443       Co446   2.029       .  S
O444        C451   1.258   1_545  A
O444       Co449   1.935       .  S
O445        C452   1.259   1_565  A
O445       Co448   1.937       .  S
Co446       O450   2.097       .  S
Co447       O450   2.099   1_545  S
Co448       O450   2.101       .  S
Co449       O450   2.099   1_545  S
C451        C905   1.408       .  S
C452        C901   1.406       .  S
C453        C912   1.456       .  S
C454       C1097   1.455       .  S
C455        C456   1.422   1_545  A
C455        C460   1.424       .  A
C455        C964   1.472       .  S
C456        C457   1.424   1_554  A
C456       C1237   1.468       .  S
C457        C458   1.424       .  A
C457       C1140   1.469       .  S
C458        C459   1.425   1_565  A
C458        C916   1.472       .  S
C459        C460   1.425   1_556  A
C459        C896   1.469       .  S
C460        C897   1.468       .  S
O461        C469   1.256       .  A
O461       Co481   1.936       .  S
O462        C470   1.257       .  A
O462       Co482   1.939       .  S
O463        C471   1.266       .  A
O463       Co483   2.041       .  S
O464        C472   1.265       .  A
O464       Co484   2.038       .  S
O465        C471   1.259       .  A
O465       Co482   1.980       .  S
O466        C472   1.258       .  A
O466       Co481   1.978       .  S
O467        C470   1.274       .  A
O467       Co484   2.017       .  S
O468        C469   1.274       .  A
O468       Co483   2.016       .  S
C469       C1017   1.406       .  S
C470        C881   1.408       .  S
C471        C885   1.458       .  S
C472        C900   1.455       .  S
O473        C486   1.274       .  A
O473       Co481   2.016       .  S
O474        C487   1.274       .  A
O474       Co482   2.016       .  S
O475        C488   1.259       .  A
O475       Co483   1.980       .  S
O476        C489   1.258       .  A
O476       Co484   1.977       .  S
O477        C489   1.265       .  A
O477       Co482   2.037       .  S
O478        C488   1.266       .  A
O478       Co481   2.040       .  S
O479        C486   1.257       .  A
O479       Co484   1.938       .  S
O480        C487   1.257       .  A
O480       Co483   1.938       .  S
Co481       O485   2.100       .  S
Co482       O485   2.102       .  S
Co483       O485   2.103       .  S
Co484       O485   2.102       .  S
C486        C953   1.407       .  S
C487        C877   1.406       .  S
C488       C1044   1.457       .  S
C489        C889   1.454       .  S
O490        C498   1.276       .  A
O490       Co510   2.020       .  S
O491        C499   1.277       .  A
O491       Co511   2.023       .  S
O492        C500   1.258       .  A
O492       Co512   1.982       .  S
O493        C501   1.258       .  A
O493       Co513   1.981       .  S
O494        C500   1.263       .  A
O494       Co511   2.033       .  S
O495        C501   1.264       .  A
O495       Co510   2.037       .  S
O496        C499   1.257       .  A
O496       Co513   1.935       .  S
O497        C498   1.260       .  A
O497       Co512   1.939       .  S
C498       C1057   1.409       .  S
C499        C980   1.407       .  S
C500        C996   1.455       .  S
C501       C1040   1.458       .  S
O502        C515   1.259       .  A
O502       Co510   1.936       .  S
O503        C516   1.258       .  A
O503       Co511   1.935       .  S
O504        C517   1.262       .  A
O504       Co512   2.030       .  S
O505        C518   1.265       .  A
O505       Co513   2.040       .  S
O506        C518   1.257       .  A
O506       Co511   1.980       .  S
O507        C517   1.258       .  A
O507       Co510   1.982       .  S
O508        C515   1.276       .  A
O508       Co513   2.021       .  S
O509        C516   1.278       .  A
O509       Co512   2.026       .  S
Co510       O514   2.099       .  S
Co511       O514   2.098       .  S
Co512       O514   2.100       .  S
Co513       O514   2.100       .  S
C515        C960   1.406       .  S
C516        C873   1.409       .  S
C517       C1276   1.456       .  S
C518        C940   1.458       .  S
C519        C520   1.425       .  A
C519        C524   1.424       .  A
C519       C1308   1.471       .  S
C520        C521   1.425       .  A
C520        C864   1.468       .  S
C521        C522   1.424       .  A
C521        C932   1.472       .  S
C522        C523   1.423       .  A
C522        C869   1.470       .  S
C523        C524   1.423       .  A
C523        C868   1.468       .  S
C524       C1208   1.470       .  S
O525        C533   1.277       .  A
O525       Co545   2.021       .  S
O526        C534   1.277       .  A
O526       Co546   2.024       .  S
O527        C535   1.258       .  A
O527       Co547   1.982       .  S
O528        C536   1.258       .  A
O528       Co548   1.982       .  S
O529        C535   1.263       .  A
O529       Co546   2.035       .  S
O530        C536   1.264       .  A
O530       Co545   2.035       .  S
O531        C534   1.257       .  A
O531       Co548   1.934       .  S
O532        C533   1.260       .  A
O532       Co547   1.937       .  S
C533        C917   1.408       .  S
C534        C880   1.406       .  S
C535        C849   1.455       .  S
C536        C856   1.458       .  S
O537        C550   1.260       .  A
O537       Co545   1.937       .  S
O538        C551   1.258       .  A
O538       Co546   1.936       .  S
O539        C552   1.263       .  A
O539       Co547   2.031       .  S
O540        C553   1.265       .  A
O540       Co548   2.039       .  S
O541        C553   1.257       .  A
O541       Co546   1.980       .  S
O542        C552   1.259       .  A
O542       Co545   1.984       .  S
O543        C550   1.276       .  A
O543       Co548   2.020       .  S
O544        C551   1.278       .  A
O544       Co547   2.025       .  S
Co545       O549   2.100       .  S
Co546       O549   2.099       .  S
Co547       O549   2.099       .  S
Co548       O549   2.100       .  S
C550        C841   1.407       .  S
C551        C845   1.410       .  S
C552        C872   1.457       .  S
C553        C860   1.457       .  S
C554        C555   1.424       .  A
C554        C559   1.424       .  A
C554       C1069   1.469       .  S
C555        C556   1.423       .  A
C555       C1312   1.469       .  S
C556        C557   1.424       .  A
C556        C833   1.471       .  S
C557        C558   1.424       .  A
C557        C892   1.467       .  S
C558        C559   1.424       .  A
C558        C857   1.470       .  S
C559        C837   1.470       .  S
C560        C561   1.424       .  A
C560        C565   1.423       .  A
C560       C1268   1.470       .  S
C561        C562   1.425       .  A
C561       C1096   1.469       .  S
C562        C563   1.425       .  A
C562        C829   1.471       .  S
C563        C564   1.424       .  A
C563       C1133   1.472       .  S
C564        C565   1.423       .  A
C564        C909   1.469       .  S
C565        C828   1.471       .  S
O566        C574   1.260       .  A
O566       Co586   1.937   1_565  S
O567        C575   1.258   1_565  A
O567       Co587   1.936       .  S
O568        C576   1.265       .  A
O568       Co588   2.039       .  S
O569        C577   1.263       .  A
O569       Co589   2.031       .  S
O570        C576   1.257       .  A
O570       Co587   1.980       .  S
O571        C577   1.259       .  A
O571       Co586   1.984       .  S
O572        C575   1.278       .  A
O572       Co589   2.025       .  S
O573        C574   1.276       .  A
O573       Co588   2.020       .  S
C574       C1225   1.407       .  S
C575        C876   1.409       .  S
C576       C1141   1.457       .  S
C577        C997   1.457       .  S
O578        C591   1.277       .  A
O578       Co586   2.021       .  S
O579        C592   1.277       .  A
O579       Co587   2.024       .  S
O580        C593   1.258       .  A
O580       Co588   1.982   1_545  S
O581        C594   1.258   1_545  A
O581       Co589   1.982       .  S
O582        C594   1.263       .  A
O582       Co587   2.035       .  S
O583        C593   1.264       .  A
O583       Co586   2.035       .  S
O584        C591   1.260       .  A
O584       Co589   1.937       .  S
O585        C592   1.257       .  A
O585       Co588   1.934       .  S
Co586       O590   2.099   1_545  S
Co587       O590   2.099       .  S
Co588       O590   2.100       .  S
Co589       O590   2.099   1_545  S
C591       C1321   1.408       .  S
C592       C1241   1.406       .  S
C593       C1352   1.459       .  S
C594       C1277   1.456       .  S
O595        C603   1.257       .  A
O595       Co615   1.934       .  S
O596        C604   1.260       .  A
O596       Co616   1.939       .  S
O597        C605   1.263       .  A
O597       Co617   2.030       .  S
O598        C606   1.264       .  A
O598       Co618   2.038       .  S
O599        C605   1.258       .  A
O599       Co616   1.981       .  S
O600        C606   1.257       .  A
O600       Co615   1.980       .  S
O601        C604   1.276       .  A
O601       Co618   2.019       .  S
O602        C603   1.277       .  A
O602       Co617   2.022       .  S
C603       C1080   1.406       .  S
C604        C844   1.407       .  S
C605        C821   1.454       .  S
C606        C817   1.456       .  S
O607        C620   1.276       .  A
O607       Co615   2.021       .  S
O608        C621   1.277       .  A
O608       Co616   2.023       .  S
O609        C622   1.258       .  A
O609       Co617   1.982       .  S
O610        C623   1.258       .  A
O610       Co618   1.979       .  S
O611        C623   1.264       .  A
O611       Co616   2.034       .  S
O612        C622   1.265       .  A
O612       Co615   2.041       .  S
O613        C620   1.257       .  A
O613       Co618   1.934       .  S
O614        C621   1.260       .  A
O614       Co617   1.938       .  S
Co615       O619   2.099       .  S
Co616       O619   2.102       .  S
Co617       O619   2.100       .  S
Co618       O619   2.098       .  S
C620        C972   1.406       .  S
C621       C1056   1.410       .  S
C622       C1109   1.459       .  S
C623        C840   1.456       .  S
C624        C625   1.422       .  A
C624        C629   1.424       .  A
C624        C824   1.468       .  S
C625        C626   1.423   1_655  A
C625       C1088   1.472       .  S
C626        C627   1.425       .  A
C626       C1264   1.468       .  S
C627        C628   1.425       .  A
C627       C1169   1.468       .  S
C628        C629   1.424   1_455  A
C628        C816   1.473       .  S
C629       C1068   1.469       .  S
O630        C638   1.277       .  A
O630       Co650   2.023       .  S
O631        C639   1.276       .  A
O631       Co651   2.020       .  S
O632        C640   1.258       .  A
O632       Co652   1.981       .  S
O633        C641   1.258       .  A
O633       Co653   1.982       .  S
O634        C640   1.264       .  A
O634       Co651   2.036       .  S
O635        C641   1.263       .  A
O635       Co650   2.033       .  S
O636        C639   1.260   1_554  A
O636       Co653   1.939       .  S
O637        C638   1.257   1_556  A
O637       Co652   1.935       .  S
C638       C1193   1.407       .  S
C639       C1121   1.409       .  S
C640        C832   1.458       .  S
C641        C865   1.455       .  S
O642        C655   1.258       .  A
O642       Co650   1.936       .  S
O643        C656   1.259       .  A
O643       Co651   1.936       .  S
O644        C657   1.265       .  A
O644       Co652   2.040       .  S
O645        C658   1.262       .  A
O645       Co653   2.030       .  S
O646        C658   1.258       .  A
O646       Co651   1.982   1_554  S
O647        C657   1.257   1_554  A
O647       Co650   1.980       .  S
O648        C655   1.278       .  A
O648       Co653   2.026       .  S
O649        C656   1.276       .  A
O649       Co652   2.021       .  S
Co650       O654   2.098       .  S
Co651       O654   2.099   1_556  S
Co652       O654   2.100   1_556  S
Co653       O654   2.100       .  S
C655        C848   1.410       .  S
C656       C1084   1.406       .  S
C657        C805   1.458       .  S
C658        C812   1.455       .  S
C659        C660   1.424       .  A
C659        C664   1.423       .  A
C659        C852   1.468       .  S
C660        C661   1.424   1_554  A
C660        C809   1.469       .  S
C661        C662   1.424       .  A
C661       C1132   1.473       .  S
C662        C663   1.426       .  A
C662        C804   1.468       .  S
C663        C664   1.424   1_556  A
C663       C1025   1.469       .  S
C664        C888   1.472       .  S
O665        C673   1.260   1_554  A
O665       Co685   1.939       .  S
O666        C674   1.258       .  A
O666       Co686   1.936   1_554  S
O667        C675   1.264       .  A
O667       Co687   2.036       .  S
O668        C676   1.264       .  A
O668       Co688   2.038       .  S
O669        C675   1.259       .  A
O669       Co686   1.982       .  S
O670        C676   1.258       .  A
O670       Co685   1.983       .  S
O671        C674   1.277       .  A
O671       Co688   2.023       .  S
O672        C673   1.277       .  A
O672       Co687   2.022       .  S
C673       C1332   1.410       .  S
C674        C884   1.408       .  S
C675       C1104   1.459       .  S
C676        C836   1.458       .  S
O677        C690   1.277       .  A
O677       Co685   2.024       .  S
O678        C691   1.276       .  A
O678       Co686   2.019       .  S
O679        C692   1.259       .  A
O679       Co687   1.983   1_554  S
O680        C693   1.257   1_554  A
O680       Co688   1.979       .  S
O681        C693   1.264       .  A
O681       Co686   2.038       .  S
O682        C692   1.263       .  A
O682       Co685   2.030       .  S
O683        C690   1.257       .  A
O683       Co688   1.934       .  S
O684        C691   1.259       .  A
O684       Co687   1.937       .  S
Co685       O689   2.099       .  S
Co686       O689   2.100   1_556  S
Co687       O689   2.101   1_556  S
Co688       O689   2.099       .  S
C690       C1296   1.407       .  S
C691        C904   1.406       .  S
C692       C1348   1.455       .  S
C693        C893   1.456       .  S
O694        C702   1.277       .  A
O694       Co714   2.024       .  S
O695        C703   1.276       .  A
O695       Co715   2.020       .  S
O696        C704   1.257       .  A
O696       Co716   1.980       .  S
O697        C705   1.258       .  A
O697       Co717   1.981       .  S
O698        C704   1.265       .  A
O698       Co715   2.040       .  S
O699        C705   1.263       .  A
O699       Co714   2.032       .  S
O700        C703   1.260       .  A
O700       Co717   1.938       .  S
O701        C702   1.257       .  A
O701       Co716   1.934       .  S
C702       C1160   1.407       .  S
C703       C1009   1.408       .  S
C704       C1001   1.458       .  S
C705       C1148   1.456       .  S
O706        C719   1.259       .  A
O706       Co714   1.938       .  S
O707        C720   1.257       .  A
O707       Co715   1.934       .  S
O708        C721   1.265       .  A
O708       Co716   2.038       .  S
O709        C722   1.263       .  A
O709       Co717   2.033       .  S
O710        C722   1.258       .  A
O710       Co715   1.980       .  S
O711        C721   1.258       .  A
O711       Co714   1.982       .  S
O712        C719   1.276       .  A
O712       Co717   2.020       .  S
O713        C720   1.276       .  A
O713       Co716   2.021       .  S
Co714       O718   2.101       .  S
Co715       O718   2.100       .  S
Co716       O718   2.097       .  S
Co717       O718   2.100       .  S
C719       C1128   1.408       .  S
C720        C981   1.406       .  S
C721        C797   1.458       .  S
C722        C801   1.455       .  S
O723        C731   1.276       .  A
O723       Co743   2.021       .  S
O724        C732   1.277       .  A
O724       Co744   2.023       .  S
O725        C733   1.258       .  A
O725       Co745   1.982       .  S
O726        C734   1.257       .  A
O726       Co746   1.980       .  S
O727        C733   1.263       .  A
O727       Co744   2.032       .  S
O728        C734   1.264       .  A
O728       Co743   2.038       .  S
O729        C732   1.258       .  A
O729       Co746   1.935       .  S
O730        C731   1.260       .  A
O730       Co745   1.938       .  S
C731       C1300   1.408       .  S
C732        C908   1.408       .  S
C733        C936   1.456       .  S
C734       C1269   1.457       .  S
O735        C748   1.257       .  A
O735       Co743   1.933       .  S
O736        C749   1.259       .  A
O736       Co744   1.937       .  S
O737        C750   1.263       .  A
O737       Co745   2.034       .  S
O738        C751   1.264       .  A
O738       Co746   2.037       .  S
O739        C751   1.258       .  A
O739       Co744   1.982       .  S
O740        C750   1.257       .  A
O740       Co743   1.979       .  S
O741        C748   1.277       .  A
O741       Co746   2.022       .  S
O742        C749   1.277       .  A
O742       Co745   2.021       .  S
Co743       O747   2.099       .  S
Co744       O747   2.100       .  S
Co745       O747   2.101       .  S
Co746       O747   2.098       .  S
C748       C1253   1.406       .  S
C749        C924   1.408       .  S
C750        C861   1.455       .  S
C751        C825   1.458       .  S
O752        C760   1.258       .  A
O752       Co772   1.936       .  S
O753        C761   1.260       .  A
O753       Co773   1.937       .  S
O754        C762   1.263       .  A
O754       Co774   2.035       .  S
O755        C763   1.264       .  A
O755       Co775   2.037       .  S
O756        C762   1.258       .  A
O756       Co773   1.982       .  S
O757        C763   1.258       .  A
O757       Co772   1.982       .  S
O758        C761   1.277       .  A
O758       Co775   2.022       .  S
O759        C760   1.278       .  A
O759       Co774   2.025       .  S
C760       C1200   1.408       .  S
C761       C1061   1.409       .  S
C762        C793   1.456       .  S
C763        C813   1.460       .  S
O764        C777   1.277       .  A
O764       Co772   2.020       .  S
O765        C778   1.278       .  A
O765       Co773   2.025       .  S
O766        C779   1.257       .  A
O766       Co774   1.979       .  S
O767        C780   1.258       .  A
O767       Co775   1.984       .  S
O768        C780   1.262       .  A
O768       Co773   2.030       .  S
O769        C779   1.264       .  A
O769       Co772   2.036       .  S
O770        C777   1.259       .  A
O770       Co775   1.937       .  S
O771        C778   1.258       .  A
O771       Co774   1.935       .  S
Co772       O776   2.099       .  S
Co773       O776   2.097       .  S
Co774       O776   2.099       .  S
Co775       O776   2.100       .  S
C777       C1153   1.406       .  S
C778       C1013   1.408       .  S
C779       C1188   1.454       .  S
C780       C1033   1.456       .  S
C781        C782   1.424       .  A
C781        C786   1.425       .  A
C781        C853   1.471       .  S
C782        C783   1.424       .  A
C782        C928   1.471       .  S
C783        C784   1.423       .  A
C783       C1168   1.469       .  S
C784        C785   1.424       .  A
C784        C800   1.470       .  S
C785        C786   1.425       .  A
C785        C988   1.471       .  S
C786        C820   1.469       .  S
C787        C788   1.423       .  A
C787        C792   1.423   1_455  A
C787        C796   1.469       .  S
C788        C789   1.424   1_554  A
C788       C1021   1.469       .  S
C789        C790   1.425   1_455  A
C789       C1340   1.471       .  S
C790        C791   1.425       .  A
C790       C1092   1.469       .  S
C791        C792   1.424   1_556  A
C791        C808   1.471       .  S
C792       C1204   1.469       .  S
C793        C794   1.218       .  T
C794        C795   1.432       .  S
C795        C796   1.218       .  T
C797        C798   1.219       .  T
C798        C799   1.434       .  S
C799        C800   1.220       .  T
C801        C802   1.218       .  T
C802        C803   1.432       .  S
C803        C804   1.218       .  T
C805        C806   1.220       .  T
C806        C807   1.434       .  S
C807        C808   1.220       .  T
C809        C810   1.218       .  T
C810        C811   1.432       .  S
C811        C812   1.218       .  T
C813        C814   1.220       .  T
C814        C815   1.436       .  S
C815        C816   1.221       .  T
C817        C818   1.218       .  T
C818        C819   1.432       .  S
C819        C820   1.218       .  T
C821        C822   1.217       .  T
C822        C823   1.431       .  S
C823        C824   1.218       .  T
C825        C826   1.219       .  T
C826        C827   1.434       .  S
C827        C828   1.219       .  T
C829        C830   1.220       .  T
C830        C831   1.434       .  S
C831        C832   1.219       .  T
C833        C834   1.219       .  T
C834        C835   1.434       .  S
C835        C836   1.219       .  T
C837        C838   1.218       .  T
C838        C839   1.433       .  S
C839        C840   1.218       .  T
C841        C842   1.190       .  T
C842        C843   1.386       .  S
C843        C844   1.189       .  T
C845        C846   1.190       .  T
C846        C847   1.387       .  S
C847        C848   1.190       .  T
C849        C850   1.218       .  T
C850        C851   1.431       .  S
C851        C852   1.218       .  T
C853        C854   1.220       .  T
C854        C855   1.435       .  S
C855        C856   1.220       .  T
C857        C858   1.219       .  T
C858        C859   1.433       .  S
C859        C860   1.219       .  T
C861        C862   1.217       .  T
C862        C863   1.431       .  S
C863        C864   1.217       .  T
C865        C866   1.217       .  T
C866        C867   1.432       .  S
C867        C868   1.217       .  T
C869        C870   1.219       .  T
C870        C871   1.433       .  S
C871        C872   1.219       .  T
C873        C874   1.190       .  T
C874        C875   1.387       .  S
C875        C876   1.190       .  T
C877        C878   1.189       .  T
C878        C879   1.385       .  S
C879        C880   1.189       .  T
C881        C882   1.190       .  T
C882        C883   1.386       .  S
C883        C884   1.189       .  T
C885        C886   1.220       .  T
C886        C887   1.435       .  S
C887        C888   1.220       .  T
C889        C890   1.218       .  T
C890        C891   1.430       .  S
C891        C892   1.218       .  T
C893        C894   1.218       .  T
C894        C895   1.432       .  S
C895        C896   1.218       .  T
C897        C898   1.218       .  T
C898        C899   1.432       .  S
C899        C900   1.218       .  T
C901        C902   1.189       .  T
C902        C903   1.385       .  S
C903        C904   1.189       .  T
C905        C906   1.189       .  T
C906        C907   1.386       .  S
C907        C908   1.190       .  T
C909        C910   1.218       .  T
C910        C911   1.432       .  S
C911        C912   1.218       .  T
C913        C914   1.221       .  T
C914        C915   1.436       .  S
C915        C916   1.221       .  T
C917        C918   1.190       .  T
C918        C919   1.387       .  S
C919        C920   1.190       .  T
C921        C922   1.190       .  T
C922        C923   1.386       .  S
C923        C924   1.190       .  T
C925        C926   1.220       .  T
C926        C927   1.434       .  S
C927        C928   1.220       .  T
C929        C930   1.221       .  T
C930        C931   1.435       .  S
C931        C932   1.221       .  T
C933        C934   1.219       .  T
C934        C935   1.433       .  S
C935        C936   1.219       .  T
C937        C938   1.220       .  T
C938        C939   1.434       .  S
C939        C940   1.220       .  T
C941        C942   1.218       .  T
C942        C943   1.432       .  S
C943        C944   1.218       .  T
C945        C946   1.219       .  T
C946        C947   1.434       .  S
C947        C948   1.219       .  T
C949        C950   1.190       .  T
C950        C951   1.387       .  S
C951        C952   1.190       .  T
C953        C954   1.189       .  T
C954        C955   1.385       .  S
C955        C956   1.189       .  T
C957        C958   1.189       .  T
C958        C959   1.385       .  S
C959        C960   1.189       .  T
C961        C962   1.220       .  T
C962        C963   1.435       .  S
C963        C964   1.220       .  T
C965        C966   1.218       .  T
C966        C967   1.432       .  S
C967        C968   1.218       .  T
C969        C970   1.189       .  T
C970        C971   1.384       .  S
C971        C972   1.188       .  T
C973        C974   1.190       .  T
C974        C975   1.387       .  S
C975        C976   1.190       .  T
C977        C978   1.189       .  T
C978        C979   1.385       .  S
C979        C980   1.189       .  T
C981        C982   1.188       .  T
C982        C983   1.384       .  S
C983        C984   1.189       .  T
C985        C986   1.219       .  T
C986        C987   1.434       .  S
C987        C988   1.219       .  T
C989        C990   1.218       .  T
C990        C991   1.432       .  S
C991        C992   1.218       .  T
C993        C994   1.218       .  T
C994        C995   1.432       .  S
C995        C996   1.218       .  T
C997        C998   1.219       .  T
C998        C999   1.433       .  S
C999       C1000   1.220       .  T
C1001      C1002   1.220       .  T
C1002      C1003   1.434       .  S
C1003      C1004   1.220       .  T
C1005      C1006   1.219       .  T
C1006      C1007   1.433       .  S
C1007      C1008   1.219       .  T
C1009      C1010   1.190       .  T
C1010      C1011   1.387       .  S
C1011      C1012   1.190       .  T
C1013      C1014   1.189       .  T
C1014      C1015   1.386       .  S
C1015      C1016   1.190       .  T
C1017      C1018   1.188       .  T
C1018      C1019   1.384       .  S
C1019      C1020   1.188       .  T
C1021      C1022   1.219       .  T
C1022      C1023   1.433       .  S
C1023      C1024   1.219       .  T
C1025      C1026   1.219       .  T
C1026      C1027   1.433       .  S
C1027      C1028   1.219       .  T
C1029      C1030   1.217       .  T
C1030      C1031   1.431       .  S
C1031      C1032   1.217       .  T
C1033      C1034   1.218       .  T
C1034      C1035   1.433       .  S
C1035      C1036   1.218       .  T
C1037      C1038   1.220       .  T
C1038      C1039   1.434       .  S
C1039      C1040   1.220       .  T
C1041      C1042   1.220       .  T
C1042      C1043   1.434       .  S
C1043      C1044   1.219       .  T
C1045      C1046   1.218       .  T
C1046      C1047   1.433       .  S
C1047      C1048   1.218       .  T
C1049      C1050   1.220       .  T
C1050      C1051   1.433       .  S
C1051      C1052   1.220       .  T
C1053      C1054   1.191       .  T
C1054      C1055   1.388       .  S
C1055      C1056   1.191       .  T
C1057      C1058   1.190       .  T
C1058      C1059   1.387       .  S
C1059      C1060   1.190       .  T
C1061      C1062   1.190       .  T
C1062      C1063   1.387       .  S
C1063      C1064   1.190       .  T
C1065      C1066   1.219       .  T
C1066      C1067   1.433       .  S
C1067      C1068   1.219       .  T
C1069      C1070   1.219       .  T
C1070      C1071   1.432       .  S
C1071      C1072   1.219       .  T
C1073      C1074   1.220       .  T
C1074      C1075   1.435       .  S
C1075      C1076   1.220       .  T
C1077      C1078   1.188       .  T
C1078      C1079   1.384       .  S
C1079      C1080   1.188       .  T
C1081      C1082   1.189       .  T
C1082      C1083   1.385       .  S
C1083      C1084   1.189       .  T
C1085      C1086   1.220       .  T
C1086      C1087   1.435       .  S
C1087      C1088   1.220       .  T
C1089      C1090   1.218       .  T
C1090      C1091   1.432       .  S
C1091      C1092   1.218       .  T
C1093      C1094   1.218       .  T
C1094      C1095   1.432       .  S
C1095      C1096   1.218       .  T
C1097      C1098   1.217       .  T
C1098      C1099   1.431       .  S
C1099      C1100   1.217       .  T
C1101      C1102   1.221       .  T
C1102      C1103   1.435       .  S
C1103      C1104   1.221       .  T
C1105      C1106   1.218       .  T
C1106      C1107   1.432       .  S
C1107      C1108   1.218       .  T
C1109      C1110   1.221       .  T
C1110      C1111   1.435       .  S
C1111      C1112   1.221       .  T
C1113      C1114   1.216       .  T
C1114      C1115   1.430       .  S
C1115      C1116   1.216       .  T
C1117      C1118   1.190       .  T
C1118      C1119   1.387       .  S
C1119      C1120   1.190       .  T
C1121      C1122   1.190       .  T
C1122      C1123   1.387       .  S
C1123      C1124   1.190       .  T
C1125      C1126   1.190       .  T
C1126      C1127   1.387       .  S
C1127      C1128   1.190       .  T
C1129      C1130   1.220       .  T
C1130      C1131   1.436       .  S
C1131      C1132   1.220       .  T
C1133      C1134   1.220       .  T
C1134      C1135   1.435       .  S
C1135      C1136   1.220       .  T
C1137      C1138   1.219       .  T
C1138      C1139   1.433       .  S
C1139      C1140   1.219       .  T
C1141      C1142   1.219       .  T
C1142      C1143   1.433       .  S
C1143      C1144   1.219       .  T
C1145      C1146   1.218       .  T
C1146      C1147   1.432       .  S
C1147      C1148   1.218       .  T
C1149      C1150   1.219       .  T
C1150      C1151   1.432       .  S
C1151      C1152   1.219       .  T
C1153      C1154   1.189       .  T
C1154      C1155   1.385       .  S
C1155      C1156   1.189       .  T
C1157      C1158   1.189       .  T
C1158      C1159   1.385       .  S
C1159      C1160   1.189       .  T
C1161      C1162   1.191       .  T
C1162      C1163   1.389       .  S
C1163      C1164   1.191       .  T
C1165      C1166   1.218       .  T
C1166      C1167   1.432       .  S
C1167      C1168   1.218       .  T
C1169      C1170   1.218       .  T
C1170      C1171   1.432       .  S
C1171      C1172   1.218       .  T
C1173      C1174   1.219       .  T
C1174      C1175   1.434       .  S
C1175      C1176   1.219       .  T
C1177      C1178   1.218       .  T
C1178      C1179   1.434       .  S
C1179      C1180   1.218       .  T
C1181      C1182   1.217       .  T
C1182      C1183   1.429       .  S
C1183      C1184   1.217       .  T
C1185      C1186   1.218       .  T
C1186      C1187   1.430       .  S
C1187      C1188   1.218       .  T
C1189      C1190   1.220       .  T
C1190      C1191   1.436       .  S
C1191      C1192   1.221       .  T
C1193      C1194   1.189       .  T
C1194      C1195   1.385       .  S
C1195      C1196   1.189       .  T
C1197      C1198   1.190       .  T
C1198      C1199   1.387       .  S
C1199      C1200   1.190       .  T
C1201      C1202   1.218       .  T
C1202      C1203   1.432       .  S
C1203      C1204   1.218       .  T
C1205      C1206   1.219       .  T
C1206      C1207   1.433       .  S
C1207      C1208   1.219       .  T
C1209      C1210   1.218       .  T
C1210      C1211   1.433       .  S
C1211      C1212   1.218       .  T
C1213      C1214   1.188       .  T
C1214      C1215   1.384       .  S
C1215      C1216   1.189       .  T
C1217      C1218   1.191       .  T
C1218      C1219   1.388       .  S
C1219      C1220   1.191       .  T
C1221      C1222   1.188       .  T
C1222      C1223   1.384       .  S
C1223      C1224   1.188       .  T
C1225      C1226   1.189       .  T
C1226      C1227   1.386       .  S
C1227      C1228   1.189       .  T
C1229      C1230   1.218       .  T
C1230      C1231   1.433       .  S
C1231      C1232   1.218       .  T
C1233      C1234   1.221       .  T
C1234      C1235   1.436       .  S
C1235      C1236   1.221       .  T
C1237      C1238   1.217       .  T
C1238      C1239   1.431       .  S
C1239      C1240   1.217       .  T
C1241      C1242   1.189       .  T
C1242      C1243   1.385       .  S
C1243      C1244   1.189       .  T
C1245      C1246   1.189       .  T
C1246      C1247   1.385       .  S
C1247      C1248   1.189       .  T
C1249      C1250   1.189       .  T
C1250      C1251   1.386       .  S
C1251      C1252   1.190       .  T
C1253      C1254   1.188       .  T
C1254      C1255   1.384       .  S
C1255      C1256   1.188       .  T
C1257      C1258   1.218       .  T
C1258      C1259   1.431       .  S
C1259      C1260   1.218       .  T
C1261      C1262   1.218       .  T
C1262      C1263   1.432       .  S
C1263      C1264   1.218       .  T
C1265      C1266   1.219       .  T
C1266      C1267   1.434       .  S
C1267      C1268   1.219       .  T
C1269      C1270   1.219       .  T
C1270      C1271   1.433       .  S
C1271      C1272   1.219       .  T
C1273      C1274   1.218       .  T
C1274      C1275   1.432       .  S
C1275      C1276   1.218       .  T
C1277      C1278   1.217       .  T
C1278      C1279   1.432       .  S
C1279      C1280   1.217       .  T
C1281      C1282   1.221       .  T
C1282      C1283   1.435       .  S
C1283      C1284   1.221       .  T
C1285      C1286   1.221       .  T
C1286      C1287   1.434       .  S
C1287      C1288   1.221       .  T
C1289      C1290   1.190       .  T
C1290      C1291   1.386       .  S
C1291      C1292   1.190       .  T
C1293      C1294   1.189       .  T
C1294      C1295   1.385       .  S
C1295      C1296   1.189       .  T
C1297      C1298   1.190       .  T
C1298      C1299   1.387       .  S
C1299      C1300   1.190       .  T
C1301      C1302   1.189       .  T
C1302      C1303   1.384       .  S
C1303      C1304   1.188       .  T
C1305      C1306   1.219       .  T
C1306      C1307   1.434       .  S
C1307      C1308   1.219       .  T
C1309      C1310   1.218       .  T
C1310      C1311   1.432       .  S
C1311      C1312   1.218       .  T
C1313      C1314   1.217       .  T
C1314      C1315   1.432       .  S
C1315      C1316   1.217       .  T
C1317      C1318   1.190       .  T
C1318      C1319   1.386       .  S
C1319      C1320   1.189       .  T
C1321      C1322   1.190       .  T
C1322      C1323   1.386       .  S
C1323      C1324   1.190       .  T
C1325      C1326   1.190       .  T
C1326      C1327   1.388       .  S
C1327      C1328   1.191       .  T
C1329      C1330   1.191       .  T
C1330      C1331   1.389       .  S
C1331      C1332   1.191       .  T
C1333      C1334   1.220       .  T
C1334      C1335   1.436       .  S
C1335      C1336   1.220       .  T
C1337      C1338   1.219       .  T
C1338      C1339   1.434       .  S
C1339      C1340   1.219       .  T
C1341      C1342   1.219       .  T
C1342      C1343   1.433       .  S
C1343      C1344   1.219       .  T
C1345      C1346   1.218       .  T
C1346      C1347   1.431       .  S
C1347      C1348   1.218       .  T
C1349      C1350   1.220       .  T
C1350      C1351   1.435       .  S
C1351      C1352   1.220       .  T
C1353      C1354   1.219       .  T
C1354      C1355   1.434       .  S
C1355      C1356   1.219       .  T
C1357      C1358   1.219       .  T
C1358      C1359   1.432       .  S
C1359      C1360   1.219       .  T
C1361      C1362   1.219       .  T
C1362      C1363   1.434       .  S
C1363      C1364   1.219       .  T
C1365      C1366   1.220       .  T
C1366      C1367   1.435       .  S
C1367      C1368   1.219       .  T
