geometry optimzed in LAMMPS
_audit_creation_date              2020-11-30 
_audit_creation_method            'lammps2cif' 
_symmetry_space_group_name_H-M    'P1' 
_symmetry_Int_Tables_number       1 
_symmetry_cell_setting            triclinic 
loop_ 
_symmetry_equiv_pos_as_xyz 
  x,y,z 
_cell_length_a                    53.59572063 
_cell_length_b                    53.479946835411035 
_cell_length_c                    53.48543603835519 
_cell_angle_alpha                 90.01096964413915 
_cell_angle_beta                  90.02357060766789 
_cell_angle_gamma                 90.03015204246967 
loop_ 
_atom_site_label 
_atom_site_type_symbol 
_atom_site_fract_x 
_atom_site_fract_y 
_atom_site_fract_z 
_atom_site_charge 
C1          C  0.97881186  0.01323856  0.00430124     0.01800
C2          C  0.99413573  0.02058234  0.98390718     0.01800
C3          C  0.01481114  0.00547748  0.97671057     0.01800
C4          C  0.02148024  0.98438691  0.99152720     0.01800
C5          C  0.00630539  0.97722600  0.01216694     0.01800
C6          C  0.98570027  0.99238948  0.01918881     0.01800
O7          O  0.02491787  0.19563008  0.86727044    -0.80600
O8          O  0.98061879  0.30109498  0.86415603    -0.80700
O9          O  0.96505121  0.24657612  0.83456216    -0.80700
O10         O  0.04294767  0.24855893  0.83902153    -0.80600
O11         O  0.94641966  0.26672003  0.86492758    -0.80700
O12         O  0.05871916  0.22956507  0.87154866    -0.80700
O13         O  0.00362213  0.28307437  0.83524200    -0.80600
O14         O  0.00506929  0.21220738  0.83529258    -0.80700
C15         C  0.02075477  0.19683561  0.84390000     1.09000
C16         C  0.98918790  0.30042128  0.84200102     1.08900
C17         C  0.94633052  0.25876226  0.84252386     1.09100
C18         C  0.06081485  0.23661300  0.84892788     1.08900
O19         O  0.03570519  0.24915230  0.91713359    -0.80600
O20         O  0.96350725  0.24782104  0.91297739    -0.80700
O21         O  0.98363457  0.19154603  0.88164932    -0.80700
O22         O  0.02027275  0.30430277  0.88308200    -0.80600
O23         O  0.99941371  0.28649491  0.91330753    -0.80700
O24         O  0.00047120  0.21036710  0.91374964    -0.80700
O25         O  0.05430545  0.27058147  0.88740769    -0.80600
O26         O  0.94955912  0.22545813  0.88142101    -0.80700
Co27       Co  0.02738621  0.22346839  0.89215063     1.51500
Co28       Co  0.97507032  0.27319393  0.88879678     1.51700
Co29       Co  0.97830058  0.22147178  0.85854753     1.51600
Co30       Co  0.02787843  0.27416706  0.86121336     1.51500
O31         O  0.00209372  0.24809378  0.87514119    -1.42600
C32         C  0.05349130  0.26283506  0.90986194     1.09000
C33         C  0.94757995  0.23290840  0.90384207     1.09100
C34         C  0.98919180  0.19157671  0.90481910     1.09000
C35         C  0.01205886  0.30486792  0.90538523     1.09000
O36         O  0.86315485  0.02267996  0.19785457    -0.80600
O37         O  0.86730784  0.97689353  0.30108803    -0.80700
O38         O  0.84218942  0.95855222  0.24988570    -0.80700
O39         O  0.83846710  0.03945202  0.25011472    -0.80600
O40         O  0.87508768  0.94253119  0.26718005    -0.80700
O41         O  0.86974047  0.05728541  0.23140572    -0.80700
O42         O  0.83682951  0.99887487  0.28388877    -0.80600
O43         O  0.83585906  0.99718376  0.21573332    -0.80700
C44         C  0.84101068  0.01413911  0.20011234     1.09000
C45         C  0.84460227  0.98395880  0.30053405     1.08900
C46         C  0.85235350  0.94034525  0.26089600     1.09100
C47         C  0.84752760  0.05846381  0.23934101     1.08900
O48         O  0.91640287  0.03623796  0.24787717    -0.80600
O49         O  0.91947571  0.96836397  0.24963732    -0.80700
O50         O  0.88169140  0.98253504  0.19172161    -0.80700
O51         O  0.88180099  0.01846170  0.30647664    -0.80600
O52         O  0.91442681  0.00210546  0.28892952    -0.80700
O53         O  0.91327655  0.00206457  0.20804767    -0.80700
O54         O  0.88689000  0.05226030  0.27198055    -0.80600
O55         O  0.89125537  0.94924036  0.22621280    -0.80700
Co56       Co  0.89057147  0.02683650  0.22355719     1.51500
Co57       Co  0.89366716  0.97500284  0.27439495     1.51700
Co58       Co  0.86295814  0.97410169  0.22348144     1.51600
Co59       Co  0.86128663  0.02488759  0.27544974     1.51500
O60         O  0.87710144  0.00025900  0.24918374    -1.42600
C61         C  0.90901326  0.05275187  0.26314342     1.09000
C62         C  0.91370926  0.95199502  0.23367446     1.09100
C63         C  0.90389922  0.99041626  0.18976114     1.09000
C64         C  0.90463037  0.01258314  0.30768785     1.09000
C65         C  0.97891677  0.98502119  0.49363670     0.01800
C66         C  0.98536903  0.00582456  0.47836269     0.01800
C67         C  0.00658568  0.02063376  0.48439535     0.01800
C68         C  0.02284162  0.01295820  0.50386385     0.01800
C69         C  0.01638516  0.99221620  0.51899563     0.01800
C70         C  0.99514523  0.97763238  0.51322330     0.01800
O71         O  0.02184237  0.79877454  0.63987947    -0.80600
O72         O  0.96859641  0.70035908  0.63561606    -0.80700
O73         O  0.95252088  0.75259302  0.65837627    -0.80700
O74         O  0.03367832  0.74637252  0.66595042    -0.80600
O75         O  0.93738315  0.73579416  0.62472444    -0.80700
O76         O  0.05420038  0.76263281  0.63491732    -0.80700
O77         O  0.99066445  0.71643272  0.66670299    -0.80600
O78         O  0.99367175  0.78324247  0.66601849    -0.80700
C79         C  0.01164145  0.79784483  0.66146922     1.09000
C80         C  0.97329851  0.70241053  0.65893082     1.08900
C81         C  0.93451019  0.74210060  0.64736544     1.09100
C82         C  0.05356336  0.75607284  0.65765063     1.08900
O83         O  0.03354029  0.74703246  0.58768250    -0.80600
O84         O  0.96605007  0.75040137  0.58140483    -0.80700
O85         O  0.98327215  0.80756795  0.61935742    -0.80700
O86         O  0.00960196  0.69073467  0.62280984    -0.80600
O87         O  0.99657316  0.70897401  0.58896788    -0.80700
O88         O  0.00255866  0.78913077  0.58883755    -0.80700
O89         O  0.04613758  0.72221743  0.61833022    -0.80600
O90         O  0.94770373  0.77592538  0.60833752    -0.80700
Co91       Co  0.02523383  0.77240764  0.61282964     1.51500
Co92       Co  0.96993056  0.72593173  0.60813796     1.51700
Co93       Co  0.97133738  0.77706995  0.63794774     1.51600
Co94       Co  0.01791245  0.72172757  0.64302279     1.51500
O95         O  0.99615164  0.74934868  0.62550333    -1.42600
C96         C  0.04675797  0.72899223  0.59545629     1.09000
C97         C  0.95058661  0.76757799  0.58613869     1.09100
C98         C  0.99190369  0.80836633  0.59737478     1.09000
C99         C  0.00554265  0.68984045  0.59947222     1.09000
O100        O  0.20090327  0.86634987  0.02698678    -0.80600
O101        O  0.30186569  0.86491368  0.97613880    -0.80700
O102        O  0.24930319  0.83468918  0.96460867    -0.80700
O103        O  0.25417709  0.84187931  0.04340256    -0.80600
O104        O  0.26622888  0.86550822  0.94383426    -0.80700
O105        O  0.23617161  0.87508534  0.05863660    -0.80700
O106        O  0.28688444  0.83653915  0.00214024    -0.80600
O107        O  0.21734213  0.83458459  0.00650404    -0.80700
C108        C  0.20245258  0.84297347  0.02281779     1.09000
C109        C  0.30296544  0.84338129  0.98619607     1.08900
C110        C  0.25982362  0.84267137  0.94495062     1.09100
C111        C  0.24297350  0.85250215  0.06133901     1.08900
O112        O  0.25147497  0.91956973  0.03164777    -0.80600
O113        O  0.24793672  0.91322194  0.96228292    -0.80700
O114        O  0.19298455  0.87871823  0.98541335    -0.80700
O115        O  0.30809946  0.88453101  0.01528822    -0.80600
O116        O  0.29000588  0.91464842  0.99457584    -0.80700
O117        O  0.21043011  0.91263342  0.99979948    -0.80700
O118        O  0.27600479  0.89197845  0.05025871    -0.80600
O119        O  0.22531231  0.88104497  0.94973206    -0.80700
Co120      Co  0.22695338  0.89303858  0.02657105     1.51500
Co121      Co  0.27420163  0.88955127  0.97195372     1.51700
Co122      Co  0.22395684  0.85774596  0.97878539     1.51600
Co123      Co  0.27849907  0.86359373  0.02562231     1.51500
O124        O  0.25097232  0.87603276  0.00068753    -1.42600
C125        C  0.26846462  0.91437927  0.04718593     1.09000
C126        C  0.23155105  0.90394547  0.94795797     1.09100
C127        C  0.19165959  0.90198748  0.99011535     1.09000
C128        C  0.30893080  0.90643562  0.00623990     1.09000
O129        O  0.99379755  0.78375671  0.16384766    -0.80600
O130        O  0.99894833  0.71437126  0.16438963    -0.80700
O131        O  0.94076610  0.76398772  0.12737324    -0.80700
O132        O  0.05559555  0.73318809  0.13426952    -0.80600
O133        O  0.95783141  0.74638614  0.16000172    -0.80700
O134        O  0.03541062  0.75142268  0.16471144    -0.80700
O135        O  0.02325690  0.69712895  0.13600225    -0.80600
O136        O  0.97281819  0.79982196  0.13225129    -0.80700
C137        C  0.97934533  0.80026106  0.15511609     1.09000
C138        C  0.01451549  0.69786469  0.15809811     1.08900
C139        C  0.93934947  0.75745692  0.15022663     1.09100
C140        C  0.05484512  0.74043757  0.15689185     1.08900
O141        O  0.05006142  0.77368707  0.11736018    -0.80600
O142        O  0.94853572  0.72350463  0.11150004    -0.80700
O143        O  0.99787814  0.78815588  0.08560330    -0.80700
O144        O  0.00404440  0.70924901  0.08633614    -0.80600
O145        O  0.98390702  0.69127616  0.11691071    -0.80700
O146        O  0.01442857  0.80589511  0.11851477    -0.80700
O147        O  0.03643251  0.75040026  0.08618900    -0.80600
O148        O  0.96537896  0.74625385  0.08158055    -0.80700
Co149      Co  0.02119616  0.77596375  0.14080315     1.51500
Co150      Co  0.97450555  0.72150424  0.13813902     1.51700
Co151      Co  0.97189903  0.77220103  0.10703763     1.51600
Co152      Co  0.02715889  0.72473576  0.11072893     1.51500
O153        O  0.99872482  0.74864407  0.12390358    -1.42600
C154        C  0.05052906  0.76747968  0.09441692     1.09000
C155        C  0.95066504  0.72906246  0.08848399     1.09100
C156        C  0.00868244  0.80687481  0.09547190     1.09000
C157        C  0.99231450  0.69047936  0.09467019     1.09000
C158        C  0.26079738  0.77864276  0.24790258     0.01800
C159        C  0.23984128  0.77249412  0.23283144     0.01800
C160        C  0.22421650  0.75212179  0.23965294     0.01800
C161        C  0.23087464  0.73663788  0.26024828     0.01800
C162        C  0.25127130  0.74341017  0.27578260     0.01800
C163        C  0.26700348  0.76348224  0.26873152     0.01800
O164        O  0.21408583  0.66452693  0.50580734    -0.80600
O165        O  0.28397884  0.66642214  0.50369345    -0.80700
O166        O  0.23436870  0.62476890  0.55876982    -0.80700
O167        O  0.26674309  0.63694260  0.44443621    -0.80600
O168        O  0.25097836  0.65863597  0.54361819    -0.80700
O169        O  0.24746419  0.66657113  0.46472063    -0.80700
O170        O  0.30173727  0.63966493  0.47774687    -0.80600
O171        O  0.19928215  0.63179455  0.52606969    -0.80700
C172        C  0.19915997  0.65513719  0.52158447     1.09000
C173        C  0.30062867  0.66124874  0.48775669     1.08900
C174        C  0.24044321  0.64759105  0.56163350     1.09100
C175        C  0.25901157  0.65933664  0.44532074     1.08900
O176        O  0.22638736  0.61897114  0.44884906    -0.80600
O177        O  0.27519405  0.60949631  0.55071329    -0.80700
O178        O  0.21174663  0.58655846  0.49857143    -0.80700
O179        O  0.29172315  0.58877745  0.49528085    -0.80600
O180        O  0.30780519  0.61950349  0.51661015    -0.80700
O181        O  0.19281213  0.61944593  0.48394945    -0.80700
O182        O  0.25056756  0.58836304  0.46225705    -0.80600
O183        O  0.25230934  0.58135317  0.53093793    -0.80700
Co184      Co  0.22290319  0.64197245  0.47811711     1.51500
Co185      Co  0.27677843  0.63849139  0.52648643     1.51700
Co186      Co  0.22669816  0.60666723  0.52599289     1.51600
Co187      Co  0.27533859  0.61331993  0.47264782     1.51500
O188        O  0.25043690  0.62512614  0.50074811    -1.42600
C189        C  0.23515951  0.59696430  0.44654145     1.09000
C190        C  0.26852237  0.58687843  0.54710740     1.09100
C191        C  0.19244554  0.59621221  0.48890910     1.09000
C192        C  0.30999079  0.59780445  0.50730470     1.09000
C193        C  0.26069027  0.72439533  0.74738228     0.01800
C194        C  0.23950865  0.73032324  0.73248422     0.01800
C195        C  0.22369901  0.75046300  0.73945563     0.01800
C196        C  0.23037303  0.76603817  0.75987316     0.01800
C197        C  0.25133224  0.76001530  0.77501426     0.01800
C198        C  0.26737950  0.73991973  0.76800483     0.01800
O199        O  0.44875330  0.77666522  0.89120441    -0.80600
O200        O  0.54875513  0.72478462  0.88004335    -0.80700
O201        O  0.49847822  0.71106144  0.91228339    -0.80700
O202        O  0.50518433  0.79036891  0.91349570    -0.80600
O203        O  0.51282691  0.69263633  0.87887200    -0.80700
O204        O  0.48404220  0.80843840  0.88355894    -0.80700
O205        O  0.53658564  0.74754774  0.91218238    -0.80600
O206        O  0.46798480  0.75245507  0.91847937    -0.80700
C207        C  0.45191588  0.76885462  0.91350874     1.09000
C208        C  0.55066117  0.73095104  0.90294399     1.08900
C209        C  0.50797280  0.69193168  0.90214724     1.09100
C210        C  0.49330197  0.80923838  0.90535063     1.08900
O211        O  0.49682582  0.78742744  0.83548116    -0.80600
O212        O  0.49145161  0.71624132  0.83428460    -0.80700
O213        O  0.43991827  0.73692475  0.87404679    -0.80700
O214        O  0.55490368  0.76550566  0.86400598    -0.80600
O215        O  0.53334636  0.74853403  0.83371713    -0.80700
O216        O  0.45600004  0.75448280  0.84101631    -0.80700
O217        O  0.52321544  0.80151416  0.86384430    -0.80600
O218        O  0.47115783  0.70070606  0.86655678    -0.80700
Co219      Co  0.47349083  0.77891822  0.86269560     1.51500
Co220      Co  0.51944076  0.72329114  0.85714658     1.51700
Co221      Co  0.47199892  0.72747173  0.89242455     1.51600
Co222      Co  0.52721082  0.77389288  0.88837890     1.51500
O223        O  0.49809835  0.75097272  0.87511849    -1.42600
C224        C  0.51299561  0.80324417  0.84245754     1.09000
C225        C  0.47500012  0.70173812  0.84314133     1.09100
C226        C  0.43770865  0.74367842  0.85134233     1.09000
C227        C  0.55319969  0.75908569  0.84120109     1.09000
C228        C  0.74872816  0.26063070  0.72522455     0.01800
C229        C  0.76925426  0.26671720  0.74093099     0.01800
C230        C  0.77527591  0.25111280  0.76161835     0.01800
C231        C  0.75944103  0.23066875  0.76782420     0.01800
C232        C  0.73947746  0.22404583  0.75156355     0.01800
C233        C  0.73316940  0.23992658  0.73119786     0.01800
O234        O  0.89336804  0.44534571  0.77531651    -0.80600
O235        O  0.88090317  0.54869469  0.72934222    -0.80700
O236        O  0.91289978  0.49939814  0.71262747    -0.80700
O237        O  0.91563735  0.50115841  0.79146838    -0.80600
O238        O  0.87915734  0.51418107  0.69542264    -0.80700
O239        O  0.88640613  0.47884348  0.80926974    -0.80700
O240        O  0.91342390  0.53575692  0.75114109    -0.80600
O241        O  0.92027739  0.46611751  0.75203466    -0.80700
C242        C  0.91546396  0.44870827  0.76717701     1.09000
C243        C  0.90384630  0.55027560  0.73506716     1.08900
C244        C  0.90240138  0.50945220  0.69400059     1.09100
C245        C  0.90831258  0.48777741  0.80966494     1.08900
O246        O  0.83787133  0.49268551  0.78947647    -0.80600
O247        O  0.83517510  0.49200985  0.71941560    -0.80700
O248        O  0.87580022  0.43901281  0.73538335    -0.80700
O249        O  0.86583546  0.55280419  0.77088705    -0.80600
O250        O  0.83513542  0.53280250  0.75295487    -0.80700
O251        O  0.84308837  0.45358502  0.75462545    -0.80700
O252        O  0.86621508  0.51827806  0.80506974    -0.80600
O253        O  0.86673294  0.47228077  0.70173291    -0.80700
Co254      Co  0.86500962  0.46995553  0.77954760     1.51500
Co255      Co  0.85813106  0.51951862  0.72690887     1.51700
Co256      Co  0.89358971  0.47177321  0.72774643     1.51600
Co257      Co  0.89019166  0.52435984  0.77727452     1.51500
O258        O  0.87666092  0.49649832  0.75297218    -1.42600
C259        C  0.84469736  0.50825786  0.80592155     1.09000
C260        C  0.84340938  0.47629137  0.70383000     1.09100
C261        C  0.85340060  0.43605926  0.74256707     1.09000
C262        C  0.84313263  0.55225372  0.76396108     1.09000
O263        O  0.00507572  0.21561292  0.33187661    -0.80600
O264        O  0.00835367  0.28606142  0.33320135    -0.80700
O265        O  0.94607936  0.23449878  0.36139424    -0.80700
O266        O  0.06024408  0.26471330  0.37239417    -0.80600
O267        O  0.96640943  0.25356781  0.33152126    -0.80700
O268        O  0.04375299  0.24830174  0.33912925    -0.80700
O269        O  0.02879188  0.30049912  0.36596678    -0.80600
O270        O  0.97852748  0.19851739  0.35836738    -0.80700
C271        C  0.98794527  0.20018179  0.33652728     1.09000
C272        C  0.02416300  0.30094033  0.34265047     1.08900
C273        C  0.94678800  0.24270952  0.33915900     1.09100
C274        C  0.06208838  0.25873703  0.34947902     1.08900
O275        O  0.05221853  0.22434386  0.38825985    -0.80600
O276        O  0.95168269  0.27490289  0.37888391    -0.80700
O277        O  0.99665431  0.20898641  0.40941600    -0.80700
O278        O  0.00150406  0.28882305  0.41145105    -0.80600
O279        O  0.98704312  0.30770458  0.37838700    -0.80700
O280        O  0.01749030  0.19165332  0.37904433    -0.80700
O281        O  0.03225121  0.24704729  0.41622739    -0.80600
O282        O  0.96376801  0.25038654  0.40982930    -0.80700
Co283      Co  0.02755303  0.22256747  0.35966456     1.51500
Co284      Co  0.98064926  0.27770325  0.35587295     1.51700
Co285      Co  0.97400925  0.22525158  0.38484828     1.51600
Co286      Co  0.02808945  0.27299207  0.39105406     1.51500
O287        O  0.00240332  0.24962012  0.37281928    -1.42600
C288        C  0.04911865  0.23164937  0.41072149     1.09000
C289        C  0.94956424  0.26734657  0.40132480     1.09100
C290        C  0.00907497  0.19060761  0.40118287     1.09000
C291        C  0.99199033  0.30813573  0.40162273     1.09000
C292        C  0.26690246  0.23278615  0.25687393     0.01800
C293        C  0.24625479  0.23909550  0.27214595     0.01800
C294        C  0.23033802  0.25913500  0.26492312     0.01800
C295        C  0.23675299  0.27458033  0.24418080     0.01800
C296        C  0.25774355  0.26842181  0.22918376     0.01800
C297        C  0.27339976  0.24818341  0.23625740     0.01800
O298        O  0.21981147  0.32928427  0.00019787    -0.80600
O299        O  0.28894851  0.33721331  0.99695367    -0.80700
O300        O  0.23064541  0.36561099  0.94154772    -0.80700
O301        O  0.26830861  0.37134915  0.05535226    -0.80600
O302        O  0.25323140  0.33612480  0.95802526    -0.80700
O303        O  0.25369487  0.33719649  0.03888186    -0.80700
O304        O  0.30163372  0.36893917  0.02020423    -0.80600
O305        O  0.19845797  0.35574723  0.97681843    -0.80700
C306        C  0.20259250  0.33364482  0.98477498     1.09000
C307        C  0.30449053  0.34671772  0.01211633     1.08900
C308        C  0.24028287  0.34404645  0.93990979     1.09100
C309        C  0.26383469  0.34811619  0.05724673     1.08900
O310        O  0.22605909  0.38298068  0.05023460    -0.80600
O311        O  0.26936360  0.38728801  0.94542180    -0.80700
O312        O  0.20649972  0.40614074  0.99852437    -0.80700
O313        O  0.28495135  0.41535062  0.99769651    -0.80600
O314        O  0.30480798  0.38527657  0.97878724    -0.80700
O315        O  0.19188918  0.37329713  0.01718783    -0.80700
O316        O  0.24525356  0.41498535  0.03264196    -0.80600
O317        O  0.24317617  0.41339468  0.96372556    -0.80700
Co318      Co  0.22536887  0.35611926  0.02418654     1.51500
Co319      Co  0.27636736  0.36141918  0.97219250     1.51700
Co320      Co  0.22192358  0.38519384  0.97264741     1.51600
Co321      Co  0.27263484  0.39206333  0.02385656     1.51500
O322        O  0.24923192  0.37353784  0.99819229    -1.42600
C323        C  0.22982191  0.40641645  0.04841511     1.09000
C324        C  0.25936800  0.40884147  0.94728559     1.09100
C325        C  0.18897499  0.39586766  0.01030457     1.09000
C326        C  0.30433022  0.40766554  0.98649991     1.09000
C327        C  0.24457789  0.26115911  0.76981153     0.01800
C328        C  0.22932651  0.24028173  0.76360218     0.01800
C329        C  0.23601093  0.22474916  0.74312013     0.01800
C330        C  0.25672207  0.23125215  0.72784977     0.01800
C331        C  0.27235736  0.25161388  0.73459494     0.01800
C332        C  0.26516054  0.26768503  0.75442539     0.01800
O333        O  0.55187292  0.27659747  0.61127208    -0.80600
O334        O  0.45090941  0.22769230  0.61710893    -0.80700
O335        O  0.50065615  0.21240943  0.58762483    -0.80700
O336        O  0.49798288  0.29388012  0.59058646    -0.80600
O337        O  0.48556776  0.19386363  0.62046213    -0.80700
O338        O  0.51776160  0.30964335  0.62234449    -0.80700
O339        O  0.46490288  0.25296027  0.58746157    -0.80600
O340        O  0.53287738  0.25321120  0.58285403    -0.80700
C341        C  0.54902819  0.26936672  0.58869405     1.09000
C342        C  0.45117433  0.23492836  0.59438178     1.08900
C343        C  0.49083522  0.19322612  0.59736530     1.09100
C344        C  0.50968845  0.31204010  0.60020792     1.08900
O345        O  0.50483327  0.28405328  0.66797390    -0.80600
O346        O  0.50533048  0.21564876  0.66588542    -0.80700
O347        O  0.55988580  0.23553744  0.62632248    -0.80700
O348        O  0.44471719  0.26760433  0.63547993    -0.80600
O349        O  0.46431374  0.24870083  0.66573190    -0.80700
O350        O  0.54453295  0.25161386  0.66020436    -0.80700
O351        O  0.47844765  0.30218195  0.64170295    -0.80600
O352        O  0.52698127  0.20076901  0.63403041    -0.80700
Co353      Co  0.52757459  0.27780574  0.64022120     1.51500
Co354      Co  0.47876151  0.22427017  0.64199939     1.51700
Co355      Co  0.52741281  0.22776715  0.60822643     1.51600
Co356      Co  0.47422465  0.27695133  0.61376423     1.51500
O357        O  0.50192811  0.25173157  0.62601011    -1.42600
C358        C  0.48786896  0.29981034  0.66351469     1.09000
C359        C  0.52168312  0.20087848  0.65724481     1.09100
C360        C  0.56256674  0.24119531  0.64920383     1.09000
C361        C  0.44483949  0.25940766  0.65773037     1.09000
O362        O  0.34048079  0.00525946  0.20989400    -0.80600
O363        O  0.33365213  0.00555295  0.27946498    -0.80700
O364        O  0.37021808  0.94665896  0.23071312    -0.80700
O365        O  0.37222000  0.06084172  0.26587014    -0.80600
O366        O  0.33795826  0.96576202  0.24645925    -0.80700
O367        O  0.34149333  0.04511899  0.24436944    -0.80700
O368        O  0.36205244  0.02746994  0.29971806    -0.80600
O369        O  0.37077575  0.98083941  0.19636692    -0.80700
C370        C  0.34880485  0.98961087  0.19421465     1.09000
C371        C  0.33944490  0.02090073  0.29630821     1.08900
C372        C  0.34719621  0.94654696  0.23622315     1.09100
C373        C  0.35040614  0.06307973  0.25690837     1.08900
O374        O  0.39285222  0.05526747  0.22705689    -0.80600
O375        O  0.38279271  0.95171561  0.27318353    -0.80700
O376        O  0.41844713  0.00048456  0.21338859    -0.80700
O377        O  0.41051273  0.00240915  0.29081523    -0.80600
O378        O  0.37705742  0.98627649  0.30690533    -0.80700
O379        O  0.38953752  0.02095998  0.19317536    -0.80700
O380        O  0.41876061  0.03622243  0.25285573    -0.80600
O381        O  0.41570554  0.96588774  0.25307881    -0.80700
Co382      Co  0.36588021  0.02933416  0.22130414     1.51500
Co383      Co  0.35845694  0.97967015  0.27400476     1.51700
Co384      Co  0.39341835  0.97620241  0.22572646     1.51600
Co385      Co  0.39076415  0.02920967  0.27516348     1.51500
O386        O  0.37706027  0.00357379  0.24893204    -1.42600
C387        C  0.41448093  0.05281269  0.23668230     1.09000
C388        C  0.40572016  0.94997823  0.26744246     1.09100
C389        C  0.41163288  0.01255420  0.19420798     1.09000
C390        C  0.39999069  0.99200029  0.30912205     1.09000
C391        C  0.49320297  0.02277076  0.51507787     0.01800
C392        C  0.47731747  0.01586746  0.49488511     0.01800
C393        C  0.48404882  0.99564334  0.47904194     0.01800
C394        C  0.50515337  0.98070652  0.48502464     0.01800
C395        C  0.52092289  0.98738692  0.50541225     0.01800
C396        C  0.51426723  0.00778725  0.52118027     0.01800
O397        O  0.46433179  0.75398427  0.41743800    -0.80600
O398        O  0.53257712  0.75572620  0.41612663    -0.80700
O399        O  0.48144302  0.69472600  0.38544635    -0.80700
O400        O  0.51337888  0.80994640  0.37662301    -0.80600
O401        O  0.49959022  0.71507548  0.41567476    -0.80700
O402        O  0.49702707  0.79358959  0.40996987    -0.80700
O403        O  0.54812976  0.77715605  0.38447043    -0.80600
O404        O  0.44640994  0.72796201  0.39072569    -0.80700
C405        C  0.44819113  0.73744410  0.41255628     1.09000
C406        C  0.54721029  0.77230452  0.40775069     1.08900
C407        C  0.48883498  0.69550667  0.40794332     1.09100
C408        C  0.50743227  0.81197013  0.39952133     1.08900
O409        O  0.47288654  0.80119065  0.36086614    -0.80600
O410        O  0.52139047  0.70104888  0.36757791    -0.80700
O411        O  0.45552791  0.74740085  0.33988683    -0.80700
O412        O  0.53761151  0.75090157  0.33787857    -0.80600
O413        O  0.55537084  0.73558749  0.37108314    -0.80700
O414        O  0.43968952  0.76741566  0.37146028    -0.80700
O415        O  0.49661576  0.78270413  0.33245391    -0.80600
O416        O  0.49652769  0.71482240  0.33749589    -0.80700
Co417      Co  0.47115465  0.77696437  0.38976938     1.51500
Co418      Co  0.52454563  0.72898295  0.39226988     1.51700
Co419      Co  0.47224046  0.72391358  0.36334684     1.51600
Co420      Co  0.52159482  0.77750516  0.35830869     1.51500
O421        O  0.49736945  0.75176029  0.37568366    -1.42600
C422        C  0.47966618  0.79801481  0.33817764     1.09000
C423        C  0.51429772  0.70106339  0.34480990     1.09100
C424        C  0.43745629  0.75927747  0.34935472     1.09000
C425        C  0.55653361  0.74094802  0.34798035     1.09000
O426        O  0.58095167  0.96778374  0.75006757    -0.80600
O427        O  0.58847949  0.03550467  0.75109284    -0.80700
O428        O  0.61942335  0.98071455  0.80791099    -0.80700
O429        O  0.62217273  0.01427424  0.69254742    -0.80600
O430        O  0.58911152  0.00214941  0.79158369    -0.80700
O431        O  0.58848189  0.99994384  0.71001503    -0.80700
O432        O  0.61918778  0.04880279  0.72681434    -0.80600
O433        O  0.60778000  0.94763348  0.77421729    -0.80700
C434        C  0.58551579  0.95181200  0.76677332     1.09000
C435        C  0.59641767  0.04945104  0.73369208     1.08900
C436        C  0.59790086  0.99015633  0.80993245     1.09100
C437        C  0.59895992  0.00965965  0.69119680     1.08900
O438        O  0.63429720  0.97216386  0.69976200    -0.80600
O439        O  0.64024822  0.01956683  0.80184592    -0.80700
O440        O  0.65768472  0.95357498  0.75084502    -0.80700
O441        O  0.66652497  0.03334403  0.74930637    -0.80600
O442        O  0.63656354  0.05391064  0.76737093    -0.80700
O443        O  0.62405947  0.93877708  0.73384363    -0.80700
O444        O  0.66598759  0.99272387  0.71647335    -0.80600
O445        O  0.66613065  0.99215156  0.78467839    -0.80700
Co446      Co  0.60749475  0.97229122  0.72573658     1.51500
Co447      Co  0.61353747  0.02509956  0.77571011     1.51700
Co448      Co  0.63770009  0.97066130  0.77670829     1.51600
Co449      Co  0.64297829  0.02005860  0.72394737     1.51500
O450        O  0.62533593  0.99713766  0.75058083    -1.42600
C451        C  0.65762655  0.97625285  0.70173334     1.09000
C452        C  0.66157941  0.00905198  0.80057915     1.09100
C453        C  0.64675292  0.93574326  0.73996965     1.09000
C454        C  0.65902705  0.05302956  0.76001214     1.09000
C455        C  0.51563703  0.99566772  0.97951031     0.01800
C456        C  0.49516054  0.98032144  0.98630905     0.01800
C457        C  0.47982261  0.98728201  0.00675531     0.01800
C458        C  0.48687519  0.00767477  0.02215662     0.01800
C459        C  0.50699818  0.02332761  0.01504142     0.01800
C460        C  0.52212447  0.01661658  0.99440608     0.01800
O461        O  0.46638522  0.25251965  0.08477573    -0.80600
O462        O  0.53496309  0.25237155  0.08404807    -0.80700
O463        O  0.48480139  0.30961556  0.12067766    -0.80700
O464        O  0.51697692  0.19474959  0.12006361    -0.80600
O465        O  0.50232552  0.29296276  0.08800206    -0.80700
O466        O  0.49898331  0.21230178  0.08817522    -0.80700
O467        O  0.55153818  0.22788909  0.11307175    -0.80600
O468        O  0.45011960  0.27680883  0.11402576    -0.80700
C469        C  0.45164815  0.26976078  0.09123809     1.09000
C470        C  0.54994303  0.23528819  0.09043720     1.08900
C471        C  0.49122460  0.31127305  0.09796994     1.09100
C472        C  0.50956194  0.19344447  0.09759625     1.08900
O473        O  0.47666292  0.20120693  0.13704307    -0.80600
O474        O  0.52562969  0.30363863  0.13648266    -0.80700
O475        O  0.46191561  0.25322489  0.16283116    -0.80700
O476        O  0.54114931  0.25126672  0.16198178    -0.80600
O477        O  0.55874323  0.26844318  0.12968610    -0.80700
O478        O  0.44340926  0.23634865  0.13091515    -0.80700
O479        O  0.50057554  0.21830576  0.16606347    -0.80600
O480        O  0.50247537  0.28622647  0.16597130    -0.80700
Co481      Co  0.47396394  0.22780911  0.11045572     1.51500
Co482      Co  0.52774851  0.27709549  0.10984807     1.51700
Co483      Co  0.47692516  0.27878161  0.14069746     1.51600
Co484      Co  0.52542957  0.22574356  0.14014308     1.51500
O485        O  0.50104213  0.25237325  0.12503858    -1.42600
C486        C  0.48519074  0.20168380  0.15930682     1.09000
C487        C  0.51787958  0.30276046  0.15899273     1.09100
C488        C  0.44283135  0.24281941  0.15369563     1.09000
C489        C  0.56002362  0.26164882  0.15235381     1.09000
O490        O  0.19670402  0.13707336  0.47674098    -0.80600
O491        O  0.30218725  0.13109781  0.52197903    -0.80700
O492        O  0.24979688  0.16212935  0.53828817    -0.80700
O493        O  0.25265197  0.16569585  0.46192267    -0.80600
O494        O  0.26750066  0.12934457  0.55503759    -0.80700
O495        O  0.23142053  0.13602020  0.44323077    -0.80700
O496        O  0.28761753  0.16368479  0.50163679    -0.80600
O497        O  0.21513320  0.16606468  0.49926654    -0.80700
C498        C  0.19752319  0.15924661  0.48519273     1.09000
C499        C  0.30310476  0.15424829  0.51679896     1.08900
C500        C  0.26121794  0.15222880  0.55647678     1.09100
C501        C  0.23992199  0.15824455  0.44334003     1.08900
O502        O  0.24925036  0.08749460  0.46123831    -0.80600
O503        O  0.24635999  0.08413688  0.53249540    -0.80700
O504        O  0.19308087  0.11884451  0.51671524    -0.80700
O505        O  0.30567487  0.11655951  0.48034320    -0.80600
O506        O  0.28611527  0.08532045  0.49805656    -0.80700
O507        O  0.21026412  0.08805410  0.49612232    -0.80700
O508        O  0.27190830  0.11804442  0.44570703    -0.80600
O509        O  0.22627517  0.11472164  0.55120743    -0.80700
Co510      Co  0.22423981  0.11214587  0.47179166     1.51500
Co511      Co  0.27321000  0.10781005  0.52436381     1.51700
Co512      Co  0.22355930  0.14037612  0.52404354     1.51600
Co513      Co  0.27686869  0.14077866  0.47480458     1.51500
O514        O  0.24949933  0.12543351  0.49869331    -1.42600
C515        C  0.26368419  0.09582078  0.44457156     1.09000
C516        C  0.23257824  0.09186577  0.55001243     1.09100
C517        C  0.19202175  0.09651462  0.50853322     1.09000
C518        C  0.30530123  0.09371080  0.48703269     1.09000
C519        C  0.76350563  0.77284185  0.25497215     0.01800
C520        C  0.76907796  0.75761423  0.23386614     0.01800
C521        C  0.75260018  0.73780353  0.22711480     0.01800
C522        C  0.73220391  0.73148255  0.24298031     0.01800
C523        C  0.72646386  0.74683498  0.26390467     0.01800
C524        C  0.74271850  0.76684831  0.27045056     0.01800
O525        O  0.61629599  0.55170845  0.27664435    -0.80600
O526        O  0.61077548  0.44897527  0.22946360    -0.80700
O527        O  0.58325322  0.50209643  0.21537189    -0.80700
O528        O  0.59205804  0.50007696  0.29453840    -0.80600
O529        O  0.61335714  0.48333531  0.19532010    -0.80700
O530        O  0.62535227  0.51730569  0.30986462    -0.80700
O531        O  0.58448689  0.46673986  0.25586682    -0.80600
O532        O  0.58427340  0.53530367  0.25648017    -0.80700
C533        C  0.59295621  0.55065726  0.27223695     1.09000
C534        C  0.58917841  0.45063074  0.23930784     1.08900
C535        C  0.59083706  0.49056705  0.19608566     1.09100
C536        C  0.60271225  0.51089076  0.31254990     1.08900
O537        O  0.66883045  0.50046265  0.28185645    -0.80600
O538        O  0.66159332  0.50056418  0.21246795    -0.80700
O539        O  0.62856137  0.55824286  0.23454702    -0.80700
O540        O  0.63168758  0.44323013  0.26824714    -0.80600
O541        O  0.66172361  0.46017046  0.24671330    -0.80700
O542        O  0.66212691  0.54071500  0.24929967    -0.80700
O543        O  0.64167771  0.47679923  0.30202993    -0.80600
O544        O  0.63016521  0.52421402  0.20010036    -0.80700
Co545      Co  0.64265398  0.52523408  0.27678474     1.51500
Co546      Co  0.63697340  0.47557528  0.22374203     1.51700
Co547      Co  0.60710424  0.52724662  0.22899907     1.51600
Co548      Co  0.61250054  0.47427467  0.27800613     1.51500
O549        O  0.62494982  0.50055816  0.25175354    -1.42600
C550        C  0.66390009  0.48468213  0.29866278     1.09000
C551        C  0.65258806  0.51679745  0.19773142     1.09100
C552        C  0.65175018  0.55950550  0.23938275     1.09000
C553        C  0.65342934  0.44174527  0.25903852     1.09000
C554        C  0.77495346  0.24668821  0.26123986     0.01800
C555        C  0.76786017  0.23034540  0.24154090     0.01800
C556        C  0.74669390  0.23607143  0.22658694     0.01800
C557        C  0.73086662  0.25631173  0.23334479     0.01800
C558        C  0.73764617  0.27220808  0.25352127     0.01800
C559        C  0.75901036  0.26669792  0.26816083     0.01800
C560        C  0.76487019  0.73760756  0.72980859     0.01800
C561        C  0.74946090  0.75835835  0.72351541     0.01800
C562        C  0.72914273  0.76509743  0.73922495     0.01800
C563        C  0.72300383  0.74966601  0.76001513     0.01800
C564        C  0.73878305  0.72922057  0.76660809     0.01800
C565        C  0.75889274  0.72226218  0.75067286     0.01800
O566        O  0.16594731  0.99488676  0.78110242    -0.80600
O567        O  0.16524444  0.99426968  0.71308850    -0.80700
O568        O  0.12722381  0.93975367  0.76574263    -0.80700
O569        O  0.13358274  0.05363039  0.72880560    -0.80600
O570        O  0.16002851  0.95489047  0.74712841    -0.80700
O571        O  0.16452057  0.03453952  0.74705427    -0.80700
O572        O  0.13729069  0.01880925  0.69502738    -0.80600
O573        O  0.13508580  0.97396390  0.79874811    -0.80700
C574        C  0.15828653  0.97858373  0.79636342     1.09000
C575        C  0.15940864  0.01017552  0.69666653     1.08900
C576        C  0.14963648  0.93704162  0.75864855     1.09100
C577        C  0.15618124  0.05365762  0.73589952     1.08900
O578        O  0.11751348  0.04914566  0.76981690    -0.80600
O579        O  0.11116488  0.94568166  0.72494012    -0.80700
O580        O  0.08786217  0.99890696  0.78755816    -0.80700
O581        O  0.08747507  0.99913721  0.70762018    -0.80600
O582        O  0.11846630  0.97894756  0.69075718    -0.80700
O583        O  0.12107868  0.01530594  0.80445463    -0.80700
O584        O  0.08642835  0.03434438  0.74696061    -0.80600
O585        O  0.08227209  0.96411887  0.74789410    -0.80700
Co586      Co  0.14188724  0.02117071  0.77308645     1.51500
Co587      Co  0.13861062  0.97085531  0.72149668     1.51700
Co588      Co  0.10837261  0.97189708  0.77260760     1.51600
Co589      Co  0.11121988  0.02388858  0.72185990     1.51500
O590        O  0.12485399  0.99700321  0.74725193    -1.42600
C591        C  0.09453102  0.04883634  0.76388399     1.09000
C592        C  0.08897636  0.94661497  0.73343564     1.09100
C593        C  0.09809482  0.00954763  0.80609194     1.09000
C594        C  0.09612178  0.98655747  0.68955452     1.09000
O595        O  0.75410625  0.41397784  0.53544628    -0.80600
O596        O  0.75273269  0.41724794  0.46503727    -0.80700
O597        O  0.80826071  0.37702538  0.51573816    -0.80700
O598        O  0.69498682  0.38525568  0.48100929    -0.80600
O599        O  0.79226984  0.41080472  0.49942833    -0.80700
O600        O  0.71377850  0.41529666  0.50128283    -0.80700
O601        O  0.72874863  0.38912175  0.44678074    -0.80600
O602        O  0.77503761  0.38163710  0.55019962    -0.80700
C603        C  0.76996055  0.40486992  0.55044281     1.09000
C604        C  0.73798617  0.41105459  0.44764052     1.08900
C605        C  0.81026174  0.40012530  0.51047625     1.09100
C606        C  0.69496651  0.40754522  0.48915289     1.08900
O607        O  0.69907645  0.36698053  0.52124593    -0.80600
O608        O  0.80199159  0.36293966  0.47462397    -0.80700
O609        O  0.75002642  0.33551690  0.53626497    -0.80700
O610        O  0.74796155  0.33917966  0.45691336    -0.80600
O611        O  0.76846592  0.37073847  0.44116018    -0.80700
O612        O  0.73347977  0.36766166  0.55515149    -0.80700
O613        O  0.71369740  0.33688231  0.49712340    -0.80600
O614        O  0.78361696  0.33260112  0.49573457    -0.80700
Co615      Co  0.72744651  0.39072292  0.52562757     1.51500
Co616      Co  0.77656711  0.39033068  0.47272259     1.51700
Co617      Co  0.77663048  0.35711712  0.52213144     1.51600
Co618      Co  0.72396942  0.36255920  0.47284267     1.51500
O619        O  0.75108954  0.37515202  0.49832859    -1.42600
C620        C  0.69766073  0.34489200  0.51252068     1.09000
C621        C  0.79910795  0.33979056  0.47940975     1.09100
C622        C  0.73957795  0.34469730  0.55543891     1.09000
C623        C  0.76022299  0.34855407  0.43894153     1.09000
C624        C  0.97953246  0.48374692  0.50841300     0.01800
C625        C  0.98585605  0.50463031  0.52367934     0.01800
C626        C  0.00631450  0.52016583  0.51691767     0.01800
C627        C  0.02206007  0.51345751  0.49660581     0.01800
C628        C  0.01568017  0.49277456  0.48119284     0.01800
C629        C  0.99508678  0.47723420  0.48773696     0.01800
O630        O  0.79893189  0.63532509  0.02511426    -0.80600
O631        O  0.70060473  0.63566610  0.97161270    -0.80700
O632        O  0.75348202  0.65930038  0.95713051    -0.80700
O633        O  0.74702547  0.66179281  0.03785203    -0.80600
O634        O  0.73640661  0.62657179  0.94016836    -0.80700
O635        O  0.76273080  0.62965636  0.05699041    -0.80700
O636        O  0.71641839  0.66539566  0.99567912    -0.80600
O637        O  0.78512214  0.66446079  0.99913473    -0.80700
C638        C  0.79885552  0.65785695  0.01731631     1.09000
C639        C  0.70237684  0.65860826  0.97791639     1.08900
C640        C  0.74323245  0.64919164  0.93837934     1.09100
C641        C  0.75632771  0.65249318  0.05745947     1.08900
O642        O  0.74736021  0.58351943  0.03313869    -0.80600
O643        O  0.75024923  0.58166872  0.96653200    -0.80700
O644        O  0.80815795  0.61785221  0.98535374    -0.80700
O645        O  0.69081057  0.62050507  0.01201221    -0.80600
O646        O  0.70843820  0.58731087  0.99681823    -0.80700
O647        O  0.78990272  0.58613575  0.00296889    -0.80700
O648        O  0.72267610  0.61327549  0.04796230    -0.80600
O649        O  0.77615889  0.60927587  0.94963989    -0.80700
Co650      Co  0.77260315  0.60890656  0.02675144     1.51500
Co651      Co  0.72601312  0.60813114  0.97155714     1.51700
Co652      Co  0.77783382  0.63761448  0.97485673     1.51600
Co653      Co  0.72205814  0.63992763  0.02132268     1.51500
O654        O  0.74969723  0.62376274  0.99860410    -1.42600
C655        C  0.72960181  0.59043048  0.04703350     1.09000
C656        C  0.76763153  0.58700919  0.95154313     1.09100
C657        C  0.80910891  0.59538921  0.99278524     1.09000
C658        C  0.68949184  0.59746983  0.00653111     1.09000
C659        C  0.48249268  0.50810194  0.98112539     0.01800
C660        C  0.50363262  0.52293979  0.98758561     0.01800
C661        C  0.51862075  0.51638680  0.00865703     0.01800
C662        C  0.51095960  0.49661126  0.02466664     0.01800
C663        C  0.49014488  0.48164359  0.01788513     0.01800
C664        C  0.47509615  0.48820350  0.99707623     0.01800
O665        O  0.78372585  0.16497210  0.99847261    -0.80600
O666        O  0.71355472  0.16304244  0.00002807    -0.80700
O667        O  0.76676644  0.12930576  0.94214106    -0.80700
O668        O  0.73313968  0.12999077  0.05653753    -0.80600
O669        O  0.74768309  0.16107317  0.95918836    -0.80700
O670        O  0.75083664  0.16173983  0.03809624    -0.80700
O671        O  0.69896445  0.13209623  0.02301286    -0.80600
O672        O  0.80131748  0.13570090  0.97534187    -0.80700
C673        C  0.79899589  0.15852659  0.98180603     1.09000
C674        C  0.69773103  0.15460376  0.01548613     1.08900
C675        C  0.75873738  0.15160246  0.94048238     1.09100
C676        C  0.73973485  0.15279715  0.05691215     1.08900
O677        O  0.77453345  0.11468253  0.05131255    -0.80600
O678        O  0.72677014  0.11195432  0.94800355    -0.80700
O679        O  0.79035218  0.08707109  0.99882794    -0.80700
O680        O  0.71262721  0.08446000  0.00123933    -0.80600
O681        O  0.69392260  0.11553335  0.98236915    -0.80700
O682        O  0.80795595  0.11940692  0.01614292    -0.80700
O683        O  0.75279565  0.08362101  0.03533112    -0.80600
O684        O  0.75032282  0.08270825  0.96505524    -0.80700
Co685      Co  0.77678322  0.13981513  0.02374414     1.51500
Co686      Co  0.72323644  0.13790952  0.97480594     1.51700
Co687      Co  0.77506675  0.10880089  0.97298409     1.51600
Co688      Co  0.72671715  0.10776016  0.02636824     1.51500
O689        O  0.75041662  0.12368395  0.99946913    -1.42600
C690        C  0.76705357  0.09211869  0.05211819     1.09000
C691        C  0.73475879  0.08954922  0.94863237     1.09100
C692        C  0.80903279  0.09653290  0.00978072     1.09000
C693        C  0.69391789  0.09290689  0.98945478     1.09000
O694        O  0.36694071  0.52193273  0.69809668    -0.80600
O695        O  0.36120700  0.47344805  0.80184152    -0.80700
O696        O  0.33640692  0.45819032  0.74617340    -0.80700
O697        O  0.33505144  0.53583580  0.74996406    -0.80600
O698        O  0.36708477  0.44081274  0.76664827    -0.80700
O699        O  0.36713529  0.55492608  0.73359077    -0.80700
O700        O  0.33187093  0.49522408  0.78301118    -0.80600
O701        O  0.33612084  0.49872982  0.71227587    -0.80700
C702        C  0.34479694  0.51366520  0.69615825     1.09000
C703        C  0.33867956  0.48084478  0.80042469     1.08900
C704        C  0.34498807  0.43961177  0.75811756     1.09100
C705        C  0.34408665  0.55490264  0.73924423     1.08900
O706        O  0.41315560  0.53405840  0.75416293    -0.80600
O707        O  0.41431116  0.46319606  0.75126094    -0.80700
O708        O  0.38431982  0.48119885  0.69375785    -0.80700
O709        O  0.37679643  0.51430785  0.80793730    -0.80600
O710        O  0.40973496  0.49641557  0.79202133    -0.80700
O711        O  0.41417015  0.50074588  0.71359138    -0.80700
O712        O  0.38134094  0.54948405  0.77526994    -0.80600
O713        O  0.38580200  0.44609628  0.72695843    -0.80700
Co714      Co  0.39001888  0.52529816  0.72719078     1.51500
Co715      Co  0.38800349  0.47110132  0.77560733     1.51700
Co716      Co  0.36066045  0.47337717  0.72245807     1.51600
Co717      Co  0.35661382  0.52147164  0.77640696     1.51500
O718        O  0.37391384  0.49781235  0.75037967    -1.42600
C719        C  0.40450261  0.54910678  0.77014858     1.09000
C720        C  0.40773885  0.44638844  0.73600817     1.09100
C721        C  0.40663046  0.48928244  0.69426810     1.09000
C722        C  0.39946068  0.50757428  0.81020935     1.09000
O723        O  0.77335971  0.89152549  0.44793364    -0.80600
O724        O  0.72506761  0.88438633  0.55034149    -0.80700
O725        O  0.70967553  0.91417002  0.49952417    -0.80700
O726        O  0.78842725  0.91596687  0.50306219    -0.80600
O727        O  0.69199375  0.88100472  0.51516528    -0.80700
O728        O  0.80639827  0.88562437  0.48251895    -0.80700
O729        O  0.74768998  0.91583154  0.53609242    -0.80600
O730        O  0.74983635  0.91966237  0.46679269    -0.80700
C731        C  0.76540664  0.91387181  0.45011120     1.09000
C732        C  0.73080659  0.90745855  0.55030689     1.08900
C733        C  0.69076819  0.90402953  0.50938188     1.09100
C734        C  0.80694356  0.90780054  0.49083195     1.08900
O735        O  0.78574528  0.83793518  0.49799088    -0.80600
O736        O  0.71557172  0.83597789  0.49551418    -0.80700
O737        O  0.73341921  0.87405222  0.44145431    -0.80700
O738        O  0.76605481  0.86863502  0.55602688    -0.80600
O739        O  0.74857363  0.83746292  0.53633177    -0.80700
O740        O  0.75202186  0.84182765  0.45798707    -0.80700
O741        O  0.80140168  0.86702699  0.52268997    -0.80600
O742        O  0.69896979  0.86703376  0.47404028    -0.80700
Co743      Co  0.77671519  0.86419172  0.47383635     1.51500
Co744      Co  0.72297378  0.86009205  0.52212546     1.51700
Co745      Co  0.72523025  0.89350215  0.47308513     1.51600
Co746      Co  0.77360851  0.89168168  0.52686191     1.51500
O747        O  0.74970810  0.87733966  0.49903788    -1.42600
C748        C  0.80215603  0.84512071  0.51341164     1.09000
C749        C  0.70040683  0.84386129  0.47921597     1.09100
C750        C  0.74068858  0.85150557  0.43966447     1.09000
C751        C  0.75923729  0.84587512  0.55571585     1.09000
O752        O  0.08655465  0.53741308  0.25361982    -0.80600
O753        O  0.08490668  0.47111676  0.25549860    -0.80700
O754        O  0.11844727  0.51879368  0.19355549    -0.80700
O755        O  0.12604668  0.48942488  0.31056150    -0.80600
O756        O  0.08695515  0.50254893  0.21333290    -0.80700
O757        O  0.09322741  0.50617129  0.29408067    -0.80700
O758        O  0.11537507  0.45447026  0.27798958    -0.80600
O759        O  0.11321165  0.55410818  0.22664149    -0.80700
C760        C  0.09154311  0.55288506  0.23652793     1.09000
C761        C  0.09228104  0.45650563  0.27257382     1.08900
C762        C  0.09569910  0.51252095  0.19372555     1.09100
C763        C  0.10343296  0.49614546  0.31277005     1.08900
O764        O  0.14341909  0.52913423  0.30018875    -0.80600
O765        O  0.13408740  0.47794856  0.20095819    -0.80700
O766        O  0.16389102  0.54453799  0.24612449    -0.80700
O767        O  0.16246096  0.46261918  0.25103201    -0.80600
O768        O  0.12870379  0.44540472  0.23661670    -0.80700
O769        O  0.13276919  0.56168654  0.26566430    -0.80700
O770        O  0.17011195  0.50341241  0.28186029    -0.80600
O771        O  0.16511580  0.50232257  0.21371308    -0.80700
Co772      Co  0.11409298  0.53089482  0.27637975     1.51500
Co773      Co  0.10913886  0.47699894  0.22878046     1.51700
Co774      Co  0.14014577  0.52774744  0.22289774     1.51600
Co775      Co  0.14310255  0.47961299  0.27767210     1.51500
O776        O  0.12686445  0.50382305  0.25131464    -1.42600
C777        C  0.16558401  0.52098441  0.29687013     1.09000
C778        C  0.15686174  0.48483304  0.19989454     1.09100
C779        C  0.15461971  0.56341715  0.25695033     1.09000
C780        C  0.15184079  0.44385349  0.24140954     1.09000
C781        C  0.48812468  0.49740416  0.52352870     0.01800
C782        C  0.48145539  0.51772739  0.50781979     0.01800
C783        C  0.49755714  0.52506538  0.48810962     0.01800
C784        C  0.51861154  0.51015783  0.48192291     0.01800
C785        C  0.52501492  0.48942095  0.49728019     0.01800
C786        C  0.50915170  0.48237039  0.51738811     0.01800
C787        C  0.01433390  0.50323666  0.02370713     0.01800
C788        C  0.02077540  0.48164698  0.00974058     0.01800
C789        C  0.00526008  0.47371657  0.98971099     0.01800
C790        C  0.98447166  0.48857007  0.98238789     0.01800
C791        C  0.97793009  0.51000061  0.99672377     0.01800
C792        C  0.99383546  0.51820307  0.01624140     0.01800
C793        C  0.02526312  0.50704816  0.04905717    -0.01800
C794        C  0.01182817  0.49854925  0.06981247    -0.09800
C795        C  0.02145935  0.50072053  0.09399167    -0.18700
C796        C  0.04511671  0.51158893  0.09830695     0.03700
C797        C  0.05843478  0.52087424  0.07716673     0.17900
C798        C  0.04848543  0.51846523  0.05280448    -0.20100
C799        C  0.08173422  0.53221966  0.08048098    -0.21300
C800        C  0.09238818  0.53401624  0.10416857    -0.19900
C801        C  0.08014022  0.52434626  0.12520982     0.19300
C802        C  0.05621947  0.51319835  0.12270577     0.01400
C803        C  0.04483115  0.50362743  0.14466615    -0.14600
C804        C  0.05711404  0.50423876  0.16784735    -0.12300
C805        C  0.08102709  0.51457337  0.17006826     0.01000
C806        C  0.09208692  0.52513123  0.14864835    -0.24500
H807        H  0.99374271  0.48984589  0.06720800     0.09000
H808        H  0.00999079  0.49355836  0.10889742     0.12500
H809        H  0.05882463  0.52525626  0.03676851     0.11300
H810        H  0.09194310  0.53951051  0.06458873     0.12500
H811        H  0.11060531  0.54262884  0.10597165     0.11500
H812        H  0.02666268  0.49500676  0.14444960     0.08600
H813        H  0.04808628  0.49598265  0.18397235     0.11800
H814        H  0.11055738  0.53329043  0.14997780     0.13700
C815        C  0.42194939  0.48837569  0.67090316    -0.01800
C816        C  0.44016906  0.50660190  0.66617826    -0.09800
C817        C  0.45179444  0.50834967  0.64271429    -0.18700
C818        C  0.44575644  0.49165726  0.62301088     0.03700
C819        C  0.42815529  0.47246448  0.62822352     0.17900
C820        C  0.41633303  0.47116305  0.65180419    -0.20100
C821        C  0.42212095  0.45491077  0.60971091    -0.21300
C822        C  0.43294971  0.45610639  0.58603404    -0.19900
C823        C  0.44981191  0.47516612  0.57996637     0.19300
C824        C  0.45637219  0.49332938  0.59835235     0.01400
C825        C  0.47296161  0.51257368  0.59108936    -0.14600
C826        C  0.48268121  0.51360877  0.56683850    -0.12300
C827        C  0.47648230  0.49555619  0.54889794     0.01000
C828        C  0.46002266  0.47628819  0.55557408    -0.24500
H829        H  0.44478905  0.52026924  0.68039593     0.09000
H830        H  0.46530832  0.52309175  0.64052054     0.12500
H831        H  0.40231541  0.45692626  0.65515421     0.11300
H832        H  0.40883418  0.44011659  0.61355944     0.12500
H833        H  0.42782096  0.44217688  0.57223799     0.11500
H834        H  0.47862250  0.52724690  0.60366737     0.08600
H835        H  0.49538121  0.52862994  0.56203450     0.11800
H836        H  0.45510741  0.46229768  0.54175866     0.13700
C837        C  0.41229596  0.51057984  0.83501844    -0.01800
C838        C  0.39864230  0.51887072  0.85588538    -0.09800
C839        C  0.40930685  0.51987491  0.87980389    -0.18700
C840        C  0.43438803  0.51281458  0.88394785     0.03700
C841        C  0.44850313  0.50509052  0.86273687     0.17900
C842        C  0.43741354  0.50391174  0.83869155    -0.20100
C843        C  0.47357505  0.49831944  0.86571597    -0.21300
C844        C  0.48485118  0.49872727  0.88921528    -0.19900
C845        C  0.47137889  0.50573572  0.91054323     0.19300
C846        C  0.44594496  0.51296861  0.90828937     0.01400
C847        C  0.43323921  0.51972890  0.93056442    -0.14600
C848        C  0.44515982  0.51892367  0.95395940    -0.12300
C849        C  0.47008733  0.51132360  0.95609842     0.01000
C850        C  0.48313027  0.50511698  0.93418333    -0.24500
H851        H  0.37927350  0.52425891  0.85386839     0.09000
H852        H  0.39736722  0.52618766  0.89473746     0.12500
H853        H  0.44831654  0.49750931  0.82286785     0.11300
H854        H  0.48455931  0.49251778  0.84972961     0.12500
H855        H  0.50425061  0.49322514  0.89075200     0.11500
H856        H  0.41396409  0.52547535  0.93054227     0.08600
H857        H  0.43475399  0.52403697  0.97053065     0.11800
H858        H  0.50240341  0.49912601  0.93566987     0.13700
C859        C  0.83332390  0.58153473  0.99101270    -0.01800
C860        C  0.85333256  0.59224182  0.97782356    -0.09800
C861        C  0.87678162  0.58079523  0.97702035    -0.18700
C862        C  0.88138126  0.55807205  0.98967245     0.03700
C863        C  0.86101970  0.54692286  0.00268978     0.17900
C864        C  0.83729828  0.55857338  0.00313124    -0.20100
C865        C  0.86459526  0.52439942  0.01555218    -0.21300
C866        C  0.88790799  0.51284976  0.01601733    -0.19900
C867        C  0.90838661  0.52346729  0.00364890     0.19300
C868        C  0.90546390  0.54620420  0.99018976     0.01400
C869        C  0.92691335  0.55620754  0.97825262    -0.14600
C870        C  0.95022659  0.54439504  0.98002889    -0.12300
C871        C  0.95295159  0.52207569  0.99337127     0.01000
C872        C  0.93188768  0.51163390  0.00497030    -0.24500
H873        H  0.85094487  0.60983562  0.96809130     0.09000
H874        H  0.89102622  0.59037839  0.96651587     0.12500
H875        H  0.82210277  0.55003272  0.01342710     0.11300
H876        H  0.84926872  0.51571554  0.02551233     0.12500
H877        H  0.88997774  0.49552837  0.02631859     0.11500
H878        H  0.92636732  0.57335699  0.96769440     0.08600
H879        H  0.96629755  0.55287041  0.97114221     0.11800
H880        H  0.93397877  0.49444665  0.01551763     0.13700
C881        C  0.66545004  0.58355651  0.01003919    -0.01800
C882        C  0.66331098  0.55801393  0.00438851    -0.09800
C883        C  0.64018168  0.54565081  0.00595769    -0.18700
C884        C  0.61815255  0.55854431  0.01304072     0.03700
C885        C  0.62057434  0.58423185  0.01942644     0.17900
C886        C  0.64394333  0.59629141  0.01808567    -0.20100
C887        C  0.59950817  0.59802669  0.02648163    -0.21300
C888        C  0.57588880  0.58718528  0.02651129    -0.19900
C889        C  0.57261002  0.56214190  0.01970452     0.19300
C890        C  0.59374634  0.54724360  0.01337855     0.01400
C891        C  0.58934976  0.52189615  0.00718456    -0.14600
C892        C  0.56506634  0.51215840  0.00637377    -0.12300
C893        C  0.54426898  0.52717207  0.01164424     0.01000
C894        C  0.54823077  0.55207524  0.01874138    -0.24500
H895        H  0.67952824  0.54758105  0.99832268     0.09000
H896        H  0.64001893  0.52612405  0.00099672     0.12500
H897        H  0.64519226  0.61600541  0.02267264     0.11300
H898        H  0.60123211  0.61758810  0.03151830     0.12500
H899        H  0.55997767  0.59862528  0.03156281     0.11500
H900        H  0.60428061  0.50922600  0.00257904     0.08600
H901        H  0.56242467  0.49279330  0.00103811     0.11800
H902        H  0.53226079  0.56371497  0.02313149     0.13700
C903        C  0.08960011  0.49379956  0.33706829    -0.01800
C904        C  0.06453456  0.50125074  0.33874045    -0.09800
C905        C  0.05155747  0.50044748  0.36150137    -0.18700
C906        C  0.06319086  0.49213055  0.38377124     0.03700
C907        C  0.08852939  0.48436626  0.38208935     0.17900
C908        C  0.10138788  0.48520134  0.35896507    -0.20100
C909        C  0.10095975  0.47599658  0.40357866    -0.21300
C910        C  0.08887820  0.47519134  0.42666884    -0.19900
C911        C  0.06397650  0.48277059  0.42905073     0.19300
C912        C  0.05072773  0.49136207  0.40762374     0.01400
C913        C  0.02566593  0.49897212  0.41112546    -0.14600
C914        C  0.01451368  0.49851835  0.43481975    -0.12300
C915        C  0.02767547  0.49035674  0.45592804     0.01000
C916        C  0.05235722  0.48212857  0.45281135    -0.24500
H917        H  0.05482097  0.50798056  0.32230668     0.09000
H918        H  0.03243009  0.50658435  0.36106210     0.12500
H919        H  0.12075739  0.47942891  0.35811612     0.11300
H920        H  0.12026535  0.47006275  0.40254351     0.12500
H921        H  0.09917407  0.46869430  0.44285415     0.11500
H922        H  0.01426566  0.50569859  0.39596529     0.08600
H923        H  0.99550355  0.50510819  0.43679674     0.11800
H924        H  0.06265131  0.47558362  0.46896549     0.13700
C925        C  0.67147021  0.42244440  0.48691974    -0.01800
C926        C  0.65271692  0.41447458  0.47036352    -0.09800
C927        C  0.62896676  0.42535031  0.47044816    -0.18700
C928        C  0.62282065  0.44464595  0.48741239     0.03700
C929        C  0.64201681  0.45322643  0.50375497     0.17900
C930        C  0.66606763  0.44231749  0.50320740    -0.20100
C931        C  0.63686611  0.47215100  0.52109222    -0.21300
C932        C  0.61304141  0.48239067  0.52293773    -0.19900
C933        C  0.59367213  0.47414914  0.50738386     0.19300
C934        C  0.59827525  0.45538552  0.48912442     0.01400
C935        C  0.57801659  0.44813028  0.47360877    -0.14600
C936        C  0.55429499  0.45893859  0.47627920    -0.12300
C937        C  0.54991499  0.47714091  0.49452932     0.01000
C938        C  0.56968290  0.48460192  0.51002777    -0.24500
H939        H  0.65621616  0.39917517  0.45755978     0.09000
H940        H  0.61563101  0.41781830  0.45737859     0.12500
H941        H  0.68019908  0.44851108  0.51633004     0.11300
H942        H  0.65130588  0.47885491  0.53360748     0.12500
H943        H  0.60970251  0.49680281  0.53677970     0.11500
H944        H  0.57994518  0.43422663  0.45915635     0.08600
H945        H  0.53928726  0.45311888  0.46401381     0.11800
H946        H  0.56636152  0.49888949  0.52403026     0.13700
C947        C  0.83450081  0.41324234  0.51503254    -0.01800
C948        C  0.85536594  0.39957486  0.52318190    -0.09800
C949        C  0.87909307  0.41049930  0.52446035    -0.18700
C950        C  0.88294711  0.43574437  0.51764484     0.03700
C951        C  0.86154155  0.45000759  0.51086405     0.17900
C952        C  0.83770692  0.43872510  0.50956564    -0.20100
C953        C  0.86416792  0.47531325  0.50470929    -0.21300
C954        C  0.88761506  0.48654502  0.50420925    -0.19900
C955        C  0.90916921  0.47276183  0.50963992     0.19300
C956        C  0.90722099  0.44722617  0.51675788     0.01400
C957        C  0.92973498  0.43424655  0.52194895    -0.14600
C958        C  0.95307368  0.44601338  0.51965247    -0.12300
C959        C  0.95483592  0.47102757  0.51211966     0.01000
C960        C  0.93272199  0.48429475  0.50743531    -0.24500
H961        H  0.85356710  0.37995377  0.52785613     0.09000
H962        H  0.89414869  0.39856743  0.53045057     0.12500
H963        H  0.82177025  0.44965637  0.50354788     0.11300
H964        H  0.84798896  0.48642673  0.49979823     0.12500
H965        H  0.88894645  0.50607708  0.49897862     0.11500
H966        H  0.92992896  0.41487913  0.52749444     0.08600
H967        H  0.96985183  0.43547001  0.52365366     0.11800
H968        H  0.93394455  0.50364242  0.50149030     0.13700
C969        C  0.75266927  0.77137268  0.69891074    -0.01800
C970        C  0.77219346  0.78824910  0.69464502    -0.09800
C971        C  0.77481472  0.80017489  0.67138003    -0.18700
C972        C  0.75796928  0.79540735  0.65145015     0.03700
C973        C  0.73842168  0.77796502  0.65590651     0.17900
C974        C  0.73585511  0.76640755  0.67944563    -0.20100
C975        C  0.72152907  0.77206556  0.63681439    -0.21300
C976        C  0.72352486  0.78309921  0.61332521    -0.19900
C977        C  0.74225788  0.80065016  0.60830297     0.19300
C978        C  0.75968429  0.80722408  0.62732230     0.01400
C979        C  0.77770349  0.82565468  0.62141008    -0.14600
C980        C  0.77801617  0.83735470  0.59793011    -0.12300
C981        C  0.76081151  0.83085683  0.57922245     0.01000
C982        C  0.74321883  0.81212163  0.58451383    -0.24500
H983        H  0.78542039  0.79227437  0.70942717     0.09000
H984        H  0.79029605  0.81288744  0.66947937     0.12500
H985        H  0.72080059  0.75323718  0.68264608     0.11300
H986        H  0.70664377  0.75873419  0.64005393     0.12500
H987        H  0.71009628  0.77805277  0.59903128     0.11500
H988        H  0.79142422  0.83186520  0.63476361     0.08600
H989        H  0.79165640  0.85191626  0.59450405     0.11800
H990        H  0.72945340  0.80726618  0.57046581     0.13700
C991        C  0.73690793  0.71817578  0.79227425    -0.01800
C992        C  0.74266640  0.73318004  0.81297870    -0.09800
C993        C  0.74321453  0.72326113  0.83719692    -0.18700
C994        C  0.73790624  0.69773597  0.84164619     0.03700
C995        C  0.73148859  0.68267239  0.82060807     0.17900
C996        C  0.73107226  0.69293456  0.79627013    -0.20100
C997        C  0.72568225  0.65738481  0.82397572    -0.21300
C998        C  0.72606675  0.64668474  0.84770287    -0.19900
C999        C  0.73260685  0.66086003  0.86874804     0.19300
C1000       C  0.73877302  0.68656929  0.86609652     0.01400
C1001       C  0.74581534  0.69976380  0.88800958    -0.14600
C1002       C  0.74689096  0.68785455  0.91139688    -0.12300
C1003       C  0.74078825  0.66248496  0.91390592     0.01000
C1004       C  0.73339092  0.64926238  0.89239450    -0.24500
H1005       H  0.74728905  0.75272165  0.81029424     0.09000
H1006       H  0.74794488  0.73603381  0.85205152     0.12500
H1007       H  0.72646352  0.68123823  0.78036440     0.11300
H1008       H  0.72077666  0.64576198  0.80811242     0.12500
H1009       H  0.72143335  0.62704260  0.84957072     0.11500
H1010       H  0.75093951  0.71925073  0.88762320     0.08600
H1011       H  0.75271357  0.69855221  0.92757669     0.11800
H1012       H  0.72875890  0.62958260  0.89389953     0.13700
C1013       C  0.74378596  0.22328866  0.20183843    -0.01800
C1014       C  0.72334639  0.20793736  0.19623443    -0.09800
C1015       C  0.72094148  0.19688225  0.17250007    -0.18700
C1016       C  0.73906858  0.20083449  0.15356013     0.03700
C1017       C  0.75979596  0.21634025  0.15956935     0.17900
C1018       C  0.76194145  0.22723286  0.18340675    -0.20100
C1019       C  0.77835277  0.22096575  0.14175761    -0.21300
C1020       C  0.77691285  0.21049504  0.11801573    -0.19900
C1021       C  0.75691714  0.19501274  0.11140657     0.19300
C1022       C  0.73764404  0.18990370  0.12901490     0.01400
C1023       C  0.71813776  0.17375821  0.12131290    -0.14600
C1024       C  0.71835388  0.16248424  0.09760366    -0.12300
C1025       C  0.73756856  0.16738675  0.08049709     0.01000
C1026       C  0.75649815  0.18411141  0.08741884    -0.24500
H1027       H  0.70915831  0.20457061  0.21024791     0.09000
H1028       H  0.70469213  0.18537985  0.16948876     0.12500
H1029       H  0.77777884  0.23913991  0.18765857     0.11300
H1030       H  0.79418028  0.23276965  0.14624397     0.12500
H1031       H  0.79169863  0.21440055  0.10475503     0.11500
H1032       H  0.70278575  0.16900699  0.13344343     0.08600
H1033       H  0.70358130  0.14953328  0.09273515     0.11800
H1034       H  0.77168346  0.18770716  0.07450792     0.13700
C1035       C  0.76204151  0.27873143  0.29320597    -0.01800
C1036       C  0.77550273  0.30091361  0.29646739    -0.09800
C1037       C  0.77732061  0.31213322  0.32017665    -0.18700
C1038       C  0.76537691  0.30156190  0.34139992     0.03700
C1039       C  0.75198791  0.27887488  0.33784274     0.17900
C1040       C  0.75058135  0.26772981  0.31402577    -0.20100
C1041       C  0.73970638  0.26758153  0.35800124    -0.21300
C1042       C  0.73995919  0.27852552  0.38161364    -0.19900
C1043       C  0.75255236  0.30107204  0.38581660     0.19300
C1044       C  0.76570693  0.31280692  0.36585433     0.01400
C1045       C  0.77814217  0.33550185  0.37121595    -0.14600
C1046       C  0.77680689  0.34643870  0.39498791    -0.12300
C1047       C  0.76332035  0.33517334  0.41453060     0.01000
C1048       C  0.75157548  0.31218895  0.40978531    -0.24500
H1049       H  0.78445812  0.30968402  0.28058022     0.09000
H1050       H  0.78789206  0.32923620  0.32125288     0.12500
H1051       H  0.74013251  0.25053737  0.31150555     0.11300
H1052       H  0.72953451  0.25025352  0.35541922     0.12500
H1053       H  0.72995933  0.26938915  0.39667319     0.11500
H1054       H  0.78872145  0.34547718  0.35729758     0.08600
H1055       H  0.78615035  0.36416234  0.39792751     0.11800
H1056       H  0.74103872  0.30322492  0.42458420     0.13700
C1057       C  0.68284760  0.47824130  0.31705050    -0.01800
C1058       C  0.68723083  0.49450516  0.33702021    -0.09800
C1059       C  0.70095200  0.48657908  0.35770632    -0.18700
C1060       C  0.71040671  0.46194731  0.35886391     0.03700
C1061       C  0.70771107  0.44646848  0.33731996     0.17900
C1062       C  0.69378148  0.45466753  0.31678379    -0.20100
C1063       C  0.71773014  0.42238164  0.33690558    -0.21300
C1064       C  0.72887639  0.41258122  0.35809252    -0.19900
C1065       C  0.72952531  0.42642381  0.38027030     0.19300
C1066       C  0.72098251  0.45153547  0.38099443     0.01400
C1067       C  0.72166960  0.46429373  0.40429496    -0.14600
C1068       C  0.72850488  0.45176788  0.42627217    -0.12300
C1069       C  0.73508302  0.42654835  0.42528510     0.01000
C1070       C  0.73692601  0.41451313  0.40216508    -0.24500
H1071       H  0.67883836  0.51293872  0.33720439     0.09000
H1072       H  0.70309634  0.49977628  0.37278450     0.12500
H1073       H  0.69046685  0.44229335  0.30110215     0.11300
H1074       H  0.71614645  0.41073712  0.32037680     0.12500
H1075       H  0.73570557  0.39350011  0.35754010     0.11500
H1076       H  0.71575705  0.48343775  0.40633620     0.08600
H1077       H  0.72734417  0.46133889  0.44408109     0.11800
H1078       H  0.74264135  0.39505334  0.40142859     0.13700
C1079       C  0.66598817  0.52547698  0.17536914    -0.01800
C1080       C  0.68954185  0.51655126  0.16849161    -0.09800
C1081       C  0.70016742  0.52381417  0.14566294    -0.18700
C1082       C  0.68716641  0.53994007  0.12910155     0.03700
C1083       C  0.66313112  0.54837251  0.13630180     0.17900
C1084       C  0.65320469  0.54156462  0.15919459    -0.20100
C1085       C  0.64890144  0.56375491  0.12075085    -0.21300
C1086       C  0.65855964  0.57216292  0.09841930    -0.19900
C1087       C  0.68271409  0.56555149  0.09141201     0.19300
C1088       C  0.69722418  0.54878103  0.10610694     0.01400
C1089       C  0.72149592  0.54272536  0.09764526    -0.14600
C1090       C  0.73163256  0.55477134  0.07680613    -0.12300
C1091       C  0.71771254  0.57282747  0.06405060     0.01000
C1092       C  0.69297938  0.57711380  0.07059998    -0.24500
H1093       H  0.69959080  0.50379814  0.18056748     0.09000
H1094       H  0.71838948  0.51646252  0.14143473     0.12500
H1095       H  0.63488594  0.54863804  0.16411725     0.11300
H1096       H  0.63034923  0.56976754  0.12614661     0.12500
H1097       H  0.64742378  0.58467838  0.08701997     0.11500
H1098       H  0.73341557  0.52974269  0.10736916     0.08600
H1099       H  0.75088512  0.55125018  0.07175789     0.11800
H1100       H  0.68222255  0.59104200  0.06055808     0.13700
C1101       C  0.52253183  0.49376657  0.05012320    -0.01800
C1102       C  0.53853503  0.47388221  0.05590220    -0.09800
C1103       C  0.54829012  0.47102779  0.08016139    -0.18700
C1104       C  0.54224074  0.48804133  0.09962849     0.03700
C1105       C  0.52552964  0.50782805  0.09372709     0.17900
C1106       C  0.51607394  0.51057079  0.06922990    -0.20100
C1107       C  0.51842172  0.52488846  0.11229289    -0.21300
C1108       C  0.52811839  0.52328824  0.13642632    -0.19900
C1109       C  0.54540799  0.50470239  0.14272271     0.19300
C1110       C  0.55246491  0.48655718  0.12452104     0.01400
C1111       C  0.57007413  0.46829466  0.13186656    -0.14600
C1112       C  0.58131759  0.46902761  0.15552961    -0.12300
C1113       C  0.57517543  0.48757623  0.17308813     0.01000
C1114       C  0.55646643  0.50484096  0.16678992    -0.24500
H1115       H  0.54346421  0.46046462  0.04155992     0.09000
H1116       H  0.56053024  0.45532180  0.08312431     0.12500
H1117       H  0.50335765  0.52576305  0.06498625     0.11300
H1118       H  0.50547365  0.53985374  0.10802087     0.12500
H1119       H  0.52249501  0.53711229  0.15012284     0.11500
H1120       H  0.57618639  0.45368475  0.11940755     0.08600
H1121       H  0.59550675  0.45528620  0.15989397     0.11800
H1122       H  0.55160542  0.51937742  0.18005020     0.13700
C1123       C  0.58960305  0.51399353  0.33696047    -0.01800
C1124       C  0.56371149  0.51065366  0.33847850    -0.09800
C1125       C  0.55132647  0.51145981  0.36149639    -0.18700
C1126       C  0.56448366  0.51541469  0.38412317     0.03700
C1127       C  0.59070512  0.51922017  0.38254876     0.17900
C1128       C  0.60292906  0.51863847  0.35914723    -0.20100
C1129       C  0.60461504  0.52317885  0.40439853    -0.21300
C1130       C  0.59313077  0.52322452  0.42779683    -0.19900
C1131       C  0.56739825  0.51922329  0.43006805     0.19300
C1132       C  0.55267473  0.51536474  0.40822757     0.01400
C1133       C  0.52682340  0.51122644  0.41153328    -0.14600
C1134       C  0.51623695  0.51026749  0.43537507    -0.12300
C1135       C  0.53077139  0.51358199  0.45689356     0.01000
C1136       C  0.55635057  0.51858216  0.45407101    -0.24500
H1137       H  0.55290883  0.50713678  0.32172213     0.09000
H1138       H  0.53141923  0.50861737  0.36093554     0.12500
H1139       H  0.62300062  0.52110490  0.35831317     0.11300
H1140       H  0.62460746  0.52609187  0.40340559     0.12500
H1141       H  0.60453029  0.52613749  0.44428250     0.11500
H1142       H  0.51426904  0.50823628  0.39606893     0.08600
H1143       H  0.49647274  0.50633884  0.43707458     0.11800
H1144       H  0.56772583  0.52151538  0.47056852     0.13700
C1145       C  0.66730576  0.41754586  0.26081504    -0.01800
C1146       C  0.65869863  0.39857342  0.27683233    -0.09800
C1147       C  0.66983117  0.37486359  0.27716852    -0.18700
C1148       C  0.69000055  0.36902132  0.26117197     0.03700
C1149       C  0.69885066  0.38833627  0.24509727     0.17900
C1150       C  0.68772011  0.41228990  0.24526070    -0.20100
C1151       C  0.71845661  0.38349038  0.22851833    -0.21300
C1152       C  0.72931309  0.35989259  0.22729359    -0.19900
C1153       C  0.72109737  0.34048696  0.24281382     0.19300
C1154       C  0.70149218  0.34472174  0.26021517     0.01400
C1155       C  0.69434481  0.32440165  0.27574451    -0.14600
C1156       C  0.70605973  0.30096433  0.27384823    -0.12300
C1157       C  0.72504227  0.29697074  0.25634339     0.01000
C1158       C  0.73245277  0.31682810  0.24096533    -0.24500
H1159       H  0.64295699  0.40195620  0.28905701     0.09000
H1160       H  0.66194364  0.36134509  0.28985197     0.12500
H1161       H  0.69445067  0.42660965  0.23259307     0.11300
H1162       H  0.72530061  0.39802618  0.21616727     0.12500
H1163       H  0.74430869  0.35679581  0.21405648     0.11500
H1164       H  0.67984520  0.32609678  0.28959613     0.08600
H1165       H  0.70020143  0.28585845  0.28598328     0.11800
H1166       H  0.74726730  0.31377750  0.22749178     0.13700
C1167       C  0.74020952  0.77928892  0.29532235    -0.01800
C1168       C  0.72482456  0.80011771  0.29874866    -0.09800
C1169       C  0.72342435  0.81204276  0.32209705    -0.18700
C1170       C  0.73737376  0.80331731  0.34290108     0.03700
C1171       C  0.75272497  0.78193361  0.33923551     0.17900
C1172       C  0.75404587  0.77028854  0.31565310    -0.20100
C1173       C  0.76679793  0.77232875  0.35909321    -0.21300
C1174       C  0.76611056  0.78352134  0.38257089    -0.19900
C1175       C  0.75143807  0.80473915  0.38685450     0.19300
C1176       C  0.73682986  0.81499204  0.36711461     0.01400
C1177       C  0.72262354  0.83663339  0.37247880    -0.14600
C1178       C  0.72338867  0.84787256  0.39613665    -0.12300
C1179       C  0.73802761  0.83787734  0.41547202     0.01000
C1180       C  0.75170782  0.81601911  0.41070152    -0.24500
H1181       H  0.71400827  0.80729836  0.28321636     0.09000
H1182       H  0.71125986  0.82804460  0.32329160     0.12500
H1183       H  0.76598081  0.75413440  0.31299436     0.11300
H1184       H  0.77850100  0.75602274  0.35643320     0.12500
H1185       H  0.77732431  0.77561369  0.39746270     0.11500
H1186       H  0.71104298  0.84557654  0.35863571     0.08600
H1187       H  0.71267249  0.86476477  0.39918208     0.11800
H1188       H  0.76329844  0.80818410  0.42535290     0.13700
C1189       C  0.75458209  0.72610598  0.20174306    -0.01800
C1190       C  0.74690976  0.73972164  0.18070520    -0.09800
C1191       C  0.74731092  0.72908951  0.15673171    -0.18700
C1192       C  0.75553360  0.70423299  0.15291074     0.03700
C1193       C  0.76339143  0.69052496  0.17438223     0.17900
C1194       C  0.76287121  0.70149700  0.19842011    -0.20100
C1195       C  0.77159481  0.66583768  0.17176771    -0.21300
C1196       C  0.77219164  0.65438720  0.14840585    -0.19900
C1197       C  0.76462295  0.66726092  0.12689705     0.19300
C1198       C  0.75618763  0.69239059  0.12871590     0.01400
C1199       C  0.74873602  0.70435194  0.10623758    -0.14600
C1200       C  0.74933489  0.69174396  0.08314274    -0.12300
C1201       C  0.75746723  0.66684388  0.08151031     0.01000
C1202       C  0.76526411  0.65491879  0.10360478    -0.24500
H1203       H  0.74027461  0.75872776  0.18291501     0.09000
H1204       H  0.74099924  0.74073810  0.14156672     0.12500
H1205       H  0.76876162  0.69084187  0.21463002     0.11300
H1206       H  0.77755941  0.65523126  0.18797301     0.12500
H1207       H  0.77860464  0.63520758  0.14716675     0.11500
H1208       H  0.74216764  0.72338593  0.10594991     0.08600
H1209       H  0.74309037  0.70147200  0.06653148     0.11800
H1210       H  0.77150456  0.63565218  0.10280995     0.13700
C1211       C  0.66527956  0.58389450  0.23637089    -0.01800
C1212       C  0.65585053  0.60259230  0.22050859    -0.09800
C1213       C  0.66642084  0.62666705  0.21987660    -0.18700
C1214       C  0.68669701  0.63319683  0.23556345     0.03700
C1215       C  0.69646588  0.61408651  0.25133830     0.17900
C1216       C  0.68600355  0.58978969  0.25135910    -0.20100
C1217       C  0.71627272  0.61947148  0.26754294    -0.21300
C1218       C  0.72645766  0.64338621  0.26869986    -0.19900
C1219       C  0.71729674  0.66266111  0.25356249     0.19300
C1220       C  0.69740844  0.65794914  0.23657567     0.01400
C1221       C  0.68917642  0.67829785  0.22160819    -0.14600
C1222       C  0.70025108  0.70213667  0.22353029    -0.12300
C1223       C  0.71971602  0.70650606  0.24047105     0.01000
C1224       C  0.72802338  0.68665476  0.25540850    -0.24500
H1225       H  0.63985123  0.59870029  0.20874388     0.09000
H1226       H  0.65797804  0.63996930  0.20733472     0.12500
H1227       H  0.69334679  0.57573603  0.26397100     0.11300
H1228       H  0.72381647  0.60509519  0.27965938     0.12500
H1229       H  0.74165055  0.64684387  0.28162820     0.11500
H1230       H  0.67429083  0.67628742  0.20821142     0.08600
H1231       H  0.69360408  0.71721346  0.21177250     0.11800
H1232       H  0.74315111  0.68995100  0.26848151     0.13700
C1233       C  0.22677722  0.07597586  0.57136977    -0.01800
C1234       C  0.21868792  0.05137683  0.56847549    -0.09800
C1235       C  0.21105308  0.03767911  0.58934507    -0.18700
C1236       C  0.21157734  0.04842675  0.61359562     0.03700
C1237       C  0.22165844  0.07283645  0.61629812     0.17900
C1238       C  0.22886523  0.08634142  0.59526100    -0.20100
C1239       C  0.22370068  0.08404184  0.63984285    -0.21300
C1240       C  0.21468912  0.07195879  0.66088387    -0.19900
C1241       C  0.20300397  0.04870509  0.65865225     0.19300
C1242       C  0.20156967  0.03637963  0.63507012     0.01400
C1243       C  0.18872095  0.01332432  0.63377286    -0.14600
C1244       C  0.17634190  0.00392543  0.65461444    -0.12300
C1245       C  0.17712109  0.01678867  0.67728200     0.01000
C1246       C  0.19125378  0.03847810  0.67959168    -0.24500
H1247       H  0.21741118  0.04310485  0.55002432     0.09000
H1248       H  0.20458467  0.01892427  0.58585815     0.12500
H1249       H  0.23572042  0.10529957  0.59742592     0.11300
H1250       H  0.23174858  0.10253306  0.64190284     0.12500
H1251       H  0.21585095  0.08134760  0.67881751     0.11500
H1252       H  0.18669870  0.00284299  0.61669086     0.08600
H1253       H  0.16509932  0.98716875  0.65274022     0.11800
H1254       H  0.19171530  0.04827436  0.69726765     0.13700
C1255       C  0.52349054  0.32399803  0.17509790    -0.01800
C1256       C  0.53410477  0.32099402  0.19868482    -0.09800
C1257       C  0.54131128  0.34198096  0.21247813    -0.18700
C1258       C  0.53786894  0.36647224  0.20284540     0.03700
C1259       C  0.52584705  0.36909181  0.17931488     0.17900
C1260       C  0.51888193  0.34794205  0.16576462    -0.20100
C1261       C  0.52173976  0.39272856  0.16889841    -0.21300
C1262       C  0.53078548  0.41398269  0.18064320    -0.19900
C1263       C  0.54407288  0.41197277  0.20303259     0.19300
C1264       C  0.54705797  0.38832964  0.21495512     0.01400
C1265       C  0.56045264  0.38747540  0.23770500    -0.14600
C1266       C  0.57257703  0.40865919  0.24669849    -0.12300
C1267       C  0.57106778  0.43121690  0.23371327     0.01000
C1268       C  0.55586412  0.43322036  0.21270832    -0.24500
H1269       H  0.53760025  0.30243947  0.20603154     0.09000
H1270       H  0.54999446  0.33838176  0.23027856     0.12500
H1271       H  0.51030217  0.35006740  0.14750050     0.11300
H1272       H  0.51227183  0.39470769  0.15108944     0.12500
H1273       H  0.52827307  0.43197131  0.17164765     0.11500
H1274       H  0.56297219  0.37053977  0.24830125     0.08600
H1275       H  0.58438301  0.40708569  0.26308997     0.11800
H1276       H  0.55461216  0.45088564  0.20295070     0.13700
C1277       C  0.56735169  0.22477900  0.07242308    -0.01800
C1278       C  0.58338180  0.24021151  0.05875741    -0.09800
C1279       C  0.60402604  0.22998027  0.04649982    -0.18700
C1280       C  0.60876736  0.20397499  0.04758946     0.03700
C1281       C  0.59086834  0.18848348  0.05971344     0.17900
C1282       C  0.57078235  0.19903365  0.07225558    -0.20100
C1283       C  0.59370002  0.16258226  0.06048149    -0.21300
C1284       C  0.61474229  0.15163176  0.05051540    -0.19900
C1285       C  0.63352925  0.16644788  0.04009185     0.19300
C1286       C  0.63091269  0.19276486  0.03807529     0.01400
C1287       C  0.65099949  0.20655464  0.02760426    -0.14600
C1288       C  0.67298455  0.19452882  0.02001096    -0.12300
C1289       C  0.67531593  0.16863973  0.02273376     0.01000
C1290       C  0.65526656  0.15485585  0.03229890    -0.24500
H1291       H  0.58088086  0.26031269  0.05894063     0.09000
H1292       H  0.61624557  0.24283979  0.03696145     0.12500
H1293       H  0.55859082  0.18721858  0.08320085     0.11300
H1294       H  0.57982199  0.15077700  0.06935355     0.12500
H1295       H  0.61673066  0.13149350  0.05176288     0.11500
H1296       H  0.65043440  0.22659603  0.02554195     0.08600
H1297       H  0.68819993  0.20545044  0.01237920     0.11800
H1298       H  0.65650890  0.13467248  0.03396089     0.13700
C1299       C  0.48750156  0.33551424  0.08480602    -0.01800
C1300       C  0.47655852  0.35551787  0.09781675    -0.09800
C1301       C  0.47490502  0.37928329  0.08726886    -0.18700
C1302       C  0.48424981  0.38410315  0.06310132     0.03700
C1303       C  0.49411590  0.36355226  0.04932310     0.17900
C1304       C  0.49577057  0.33957321  0.06026203    -0.20100
C1305       C  0.50264791  0.36719192  0.02486581    -0.21300
C1306       C  0.50202041  0.39082062  0.01396865    -0.19900
C1307       C  0.49333053  0.41154080  0.02741081     0.19300
C1308       C  0.48438188  0.40858050  0.05222797     0.01400
C1309       C  0.47664750  0.43037497  0.06525349    -0.14600
C1310       C  0.47791399  0.45403143  0.05408396    -0.12300
C1311       C  0.48675061  0.45667069  0.02965575     0.01000
C1312       C  0.49413850  0.43535014  0.01635597    -0.24500
H1313       H  0.46956819  0.35297825  0.11664769     0.09000
H1314       H  0.46632084  0.39353543  0.09861202     0.12500
H1315       H  0.50397278  0.32424832  0.04986301     0.11300
H1316       H  0.50999259  0.35167519  0.01412136     0.12500
H1317       H  0.50887151  0.39299467  0.99503080     0.11500
H1318       H  0.47006455  0.42984727  0.08426896     0.08600
H1319       H  0.47232673  0.47037490  0.06464926     0.11800
H1320       H  0.50127714  0.43749325  0.99749984     0.13700
C1321       C  0.58433011  0.26327555  0.16595864    -0.01800
C1322       C  0.58635496  0.25667458  0.19124314    -0.09800
C1323       C  0.60966115  0.25617050  0.20324733    -0.18700
C1324       C  0.63196361  0.26205559  0.19022827     0.03700
C1325       C  0.62977042  0.26903384  0.16468827     0.17900
C1326       C  0.60622607  0.26974880  0.15297389    -0.20100
C1327       C  0.65114609  0.27488937  0.15078840    -0.21300
C1328       C  0.67474933  0.27387166  0.16161741    -0.19900
C1329       C  0.67769463  0.26701290  0.18668657     0.19300
C1330       C  0.65634028  0.26104640  0.20141995     0.01400
C1331       C  0.66041426  0.25414345  0.22661719    -0.14600
C1332       C  0.68452572  0.25301602  0.23658844    -0.12300
C1333       C  0.70546510  0.25876912  0.22200636     0.01000
C1334       C  0.70191529  0.26591725  0.19705599    -0.24500
H1335       H  0.56985980  0.25155157  0.20176140     0.09000
H1336       H  0.60964069  0.25079265  0.22265963     0.12500
H1337       H  0.60508600  0.27473819  0.13335809     0.11300
H1338       H  0.64961580  0.28017509  0.13128667     0.12500
H1339       H  0.69085710  0.27840852  0.15023858     0.11500
H1340       H  0.64536025  0.24935246  0.23906821     0.08600
H1341       H  0.68690966  0.24731677  0.25587651     0.11800
H1342       H  0.71805427  0.27039397  0.18568716     0.13700
C1343       C  0.54720693  0.02844202  0.99176638    -0.01800
C1344       C  0.55370688  0.04317423  0.97113927    -0.09800
C1345       C  0.57788551  0.05307256  0.96893441    -0.18700
C1346       C  0.59633963  0.04839991  0.98740915     0.03700
C1347       C  0.58938578  0.03346931  0.00826669     0.17900
C1348       C  0.56510576  0.02384909  0.01025569    -0.20100
C1349       C  0.60671882  0.02803956  0.02705783    -0.21300
C1350       C  0.63095638  0.03713154  0.02571821    -0.19900
C1351       C  0.63849168  0.05208359  0.00564984     0.19300
C1352       C  0.62133415  0.05800447  0.98616503     0.01400
C1353       C  0.62989684  0.07364171  0.96664118    -0.14600
C1354       C  0.65399959  0.08375658  0.96709233    -0.12300
C1355       C  0.67060430  0.07824565  0.98661456     0.01000
C1356       C  0.66290674  0.06183475  0.00546909    -0.24500
H1357       H  0.54007818  0.04691745  0.95666400     0.09000
H1358       H  0.58162541  0.06414226  0.95254001     0.12500
H1359       H  0.56010052  0.01232399  0.02617788     0.11300
H1360       H  0.60148040  0.01663316  0.04296868     0.12500
H1361       H  0.64385467  0.03263814  0.04067306     0.11500
H1362       H  0.61817788  0.07897569  0.95116978     0.08600
H1363       H  0.65949277  0.09654282  0.95237607     0.11800
H1364       H  0.67543598  0.05786932  0.02089831     0.13700
C1365       C  0.50984719  0.04869567  0.02642489    -0.01800
C1366       C  0.50397839  0.06971881  0.01196998    -0.09800
C1367       C  0.50453041  0.09375331  0.02223146    -0.18700
C1368       C  0.51100904  0.09763535  0.04756754     0.03700
C1369       C  0.51758467  0.07624466  0.06203121     0.17900
C1370       C  0.51707465  0.05211621  0.05137034    -0.20100
C1371       C  0.52440084  0.07904980  0.08712902    -0.21300
C1372       C  0.52493423  0.10259057  0.09820413    -0.19900
C1373       C  0.51837689  0.12397179  0.08458095     0.19300
C1374       C  0.51112997  0.12186829  0.05911176     0.01400
C1375       C  0.50404227  0.14408898  0.04651238    -0.14600
C1376       C  0.50391532  0.16726250  0.05878698    -0.12300
C1377       C  0.51112199  0.16921884  0.08389063     0.01000
C1378       C  0.51868307  0.14742927  0.09648585    -0.24500
H1379       H  0.49844680  0.06743399  0.99261602     0.09000
H1380       H  0.49965135  0.10890053  0.00987101     0.12500
H1381       H  0.52187989  0.03591541  0.06256921     0.11300
H1382       H  0.52937315  0.06289469  0.09830079     0.12500
H1383       H  0.53032375  0.10405665  0.11768629     0.11500
H1384       H  0.49812321  0.14413290  0.02725078     0.08600
H1385       H  0.49796710  0.18370957  0.04859437     0.11800
H1386       H  0.52438214  0.14857903  0.11589746     0.13700
C1387       C  0.67979952  0.01535404  0.81973137    -0.01800
C1388       C  0.68114277  0.00106203  0.84157292    -0.09800
C1389       C  0.69293095  0.01059182  0.86285803    -0.18700
C1390       C  0.70314396  0.03499992  0.86277123     0.03700
C1391       C  0.70263882  0.04865586  0.83990228     0.17900
C1392       C  0.69130134  0.03858695  0.81871421    -0.20100
C1393       C  0.71215701  0.07290689  0.83852628    -0.21300
C1394       C  0.72137325  0.08445578  0.85969541    -0.19900
C1395       C  0.72130130  0.07195273  0.88262257     0.19300
C1396       C  0.71275276  0.04688489  0.88462308     0.01400
C1397       C  0.71345343  0.03535788  0.90854222    -0.14600
C1398       C  0.72147444  0.04868229  0.92965434    -0.12300
C1399       C  0.72871656  0.07364899  0.92727129     0.01000
C1400       C  0.72906196  0.08487970  0.90375115    -0.24500
H1401       H  0.67178294  0.98313253  0.84260756     0.09000
H1402       H  0.69275476  0.99896783  0.87929791     0.12500
H1403       H  0.69002699  0.04954678  0.80181798     0.11300
H1404       H  0.71181162  0.08327583  0.82110991     0.12500
H1405       H  0.72809406  0.10354228  0.85823489     0.11500
H1406       H  0.70756776  0.01632705  0.91154843     0.08600
H1407       H  0.72119188  0.03982182  0.94785700     0.11800
H1408       H  0.73494076  0.10421306  0.90196518     0.13700
C1409       C  0.67399853  0.96286877  0.68465452    -0.01800
C1410       C  0.66519474  0.94046431  0.67448002    -0.09800
C1411       C  0.67488646  0.93161911  0.65230206    -0.18700
C1412       C  0.69365540  0.94512958  0.63983389     0.03700
C1413       C  0.70562198  0.96512720  0.65244062     0.17900
C1414       C  0.69544620  0.97417458  0.67482962    -0.20100
C1415       C  0.72671665  0.97644664  0.64186207    -0.21300
C1416       C  0.73587388  0.96820126  0.61885813    -0.19900
C1417       C  0.72295746  0.94987224  0.60528348     0.19300
C1418       C  0.70084373  0.93924923  0.61523818     0.01400
C1419       C  0.68617717  0.92367594  0.59995304    -0.14600
C1420       C  0.69503759  0.91584151  0.57706104    -0.12300
C1421       C  0.71873639  0.92311928  0.56897139     0.01000
C1422       C  0.73208133  0.94135999  0.58221188    -0.24500
H1423       H  0.64942304  0.93077307  0.68265240     0.09000
H1424       H  0.66704881  0.91450881  0.64498775     0.12500
H1425       H  0.70283566  0.99105179  0.68329098     0.11300
H1426       H  0.73627463  0.99147527  0.65151399     0.12500
H1427       H  0.75266007  0.97664372  0.61134977     0.11500
H1428       H  0.66789465  0.91715448  0.60537136     0.08600
H1429       H  0.68405290  0.90252549  0.56644586     0.11800
H1430       H  0.75018177  0.94749617  0.57554891     0.13700
C1431       C  0.65982838  0.91130725  0.73605608    -0.01800
C1432       C  0.68557438  0.90936840  0.74035041    -0.09800
C1433       C  0.69783545  0.88626292  0.73912412    -0.18700
C1434       C  0.68470131  0.86390121  0.73378691     0.03700
C1435       C  0.65873027  0.86593343  0.72867347     0.17900
C1436       C  0.64665250  0.88945928  0.72959022    -0.20100
C1437       C  0.64483437  0.84434630  0.72338877    -0.21300
C1438       C  0.65596131  0.82075272  0.72373095    -0.19900
C1439       C  0.68138297  0.81799222  0.72919150     0.19300
C1440       C  0.69621484  0.83958932  0.73394356     0.01400
C1441       C  0.72182486  0.83581665  0.73913614    -0.14600
C1442       C  0.73201446  0.81175909  0.74033987    -0.12300
C1443       C  0.71733168  0.79045209  0.73625523     0.01000
C1444       C  0.69200185  0.79375252  0.73028038    -0.24500
H1445       H  0.69635198  0.92583598  0.74511867     0.09000
H1446       H  0.71756081  0.88648437  0.74296399     0.12500
H1447       H  0.62674544  0.89058108  0.72617474     0.11300
H1448       H  0.62505364  0.84566460  0.71939579     0.12500
H1449       H  0.64449403  0.80448444  0.71997190     0.11500
H1450       H  0.73445855  0.85106984  0.74268520     0.08600
H1451       H  0.75160027  0.80972272  0.74494181     0.11800
H1452       H  0.68050444  0.77743095  0.72683221     0.13700
C1453       C  0.58495586  0.98872679  0.83453748    -0.01800
C1454       C  0.59739841  0.97797412  0.85500949    -0.09800
C1455       C  0.58661486  0.97744896  0.87874317    -0.18700
C1456       C  0.56272882  0.98767704  0.88301157     0.03700
C1457       C  0.54968661  0.99772498  0.86207611     0.17900
C1458       C  0.56089840  0.99833126  0.83819742    -0.20100
C1459       C  0.52558801  0.00728553  0.86515623    -0.21300
C1460       C  0.51425451  0.00735642  0.88855943    -0.19900
C1461       C  0.52688394  0.99831226  0.90962065     0.19300
C1462       C  0.55137420  0.98842388  0.90726615     0.01400
C1463       C  0.56355115  0.98027752  0.92939225    -0.14600
C1464       C  0.55192603  0.98215198  0.95278071    -0.12300
C1465       C  0.52783554  0.99192319  0.95480486     0.01000
C1466       C  0.51531851  0.99963634  0.93315602    -0.24500
H1467       H  0.61590623  0.97014409  0.85283088     0.09000
H1468       H  0.59747853  0.96890180  0.89335983     0.12500
H1469       H  0.55094578  0.00641519  0.82251641     0.11300
H1470       H  0.51542159  0.01481451  0.84933975     0.12500
H1471       H  0.49558563  0.01494791  0.89027083     0.11500
H1472       H  0.58222305  0.97288007  0.92932132     0.08600
H1473       H  0.56186354  0.97624919  0.96940308     0.11800
H1474       H  0.49670061  0.00740912  0.93482498     0.13700
C1475       C  0.52608267  0.68287069  0.32823401    -0.01800
C1476       C  0.51260250  0.67014420  0.30980704    -0.09800
C1477       C  0.52216106  0.64807993  0.29949154    -0.18700
C1478       C  0.54514493  0.63811789  0.30801845     0.03700
C1479       C  0.55904849  0.65223226  0.32573193     0.17900
C1480       C  0.54988833  0.67471068  0.33475545    -0.20100
C1481       C  0.58134582  0.64322158  0.33571166    -0.21300
C1482       C  0.59003144  0.61993669  0.32896482    -0.19900
C1483       C  0.57710701  0.60567855  0.31135755     0.19300
C1484       C  0.55469539  0.61452894  0.30023619     0.01400
C1485       C  0.54320186  0.59945701  0.28172829    -0.14600
C1486       C  0.55458515  0.57738382  0.27351430    -0.12300
C1487       C  0.57718667  0.56963233  0.28406790     0.01000
C1488       C  0.58738383  0.58306660  0.30396149    -0.24500
H1489       H  0.49405493  0.67628160  0.30461992     0.09000
H1490       H  0.51060510  0.63857512  0.28599766     0.12500
H1491       H  0.56045570  0.68478463  0.34884686     0.11300
H1492       H  0.59181491  0.65398735  0.34933944     0.12500
H1493       H  0.60725980  0.61323579  0.33722377     0.11500
H1494       H  0.52616424  0.60484198  0.27246635     0.08600
H1495       H  0.54642079  0.56715255  0.25806408     0.11800
H1496       H  0.60464571  0.57684155  0.31256681     0.13700
C1497       C  0.56557359  0.78481270  0.42366463    -0.01800
C1498       C  0.57497061  0.77357181  0.44528960    -0.09800
C1499       C  0.59754114  0.78184847  0.45550169    -0.18700
C1500       C  0.61145441  0.80101701  0.44364266     0.03700
C1501       C  0.60061760  0.81323093  0.42269553     0.17900
C1502       C  0.57744932  0.80585139  0.41382109    -0.20100
C1503       C  0.61353458  0.83170182  0.40956366    -0.21300
C1504       C  0.63745578  0.83817065  0.41652955    -0.19900
C1505       C  0.64852895  0.82692016  0.43728970     0.19300
C1506       C  0.63580868  0.80830064  0.45134848     0.01400
C1507       C  0.64795178  0.79823777  0.47262035    -0.14600
C1508       C  0.67073516  0.80804441  0.48076778    -0.12300
C1509       C  0.68202910  0.82748958  0.46749221     0.01000
C1510       C  0.67174641  0.83548408  0.44492460    -0.24500
H1511       H  0.56584634  0.75735039  0.45325713     0.09000
H1512       H  0.60428380  0.77196207  0.47170600     0.12500
H1513       H  0.56980777  0.81504168  0.39742595     0.11300
H1514       H  0.60528761  0.84081972  0.39345217     0.12500
H1515       H  0.64714991  0.85247911  0.40594680     0.11500
H1516       H  0.63969582  0.78386497  0.48406670     0.08600
H1517       H  0.67852983  0.80171752  0.49835542     0.11800
H1518       H  0.68075004  0.85036538  0.43449064     0.13700
C1519       C  0.48751247  0.67253445  0.42353636    -0.01800
C1520       C  0.50513241  0.66820292  0.44238410    -0.09800
C1521       C  0.50656616  0.64493654  0.45433520    -0.18700
C1522       C  0.49019176  0.62513185  0.44790126     0.03700
C1523       C  0.47134811  0.63015234  0.42988132     0.17900
C1524       C  0.47031139  0.65355012  0.41781235    -0.20100
C1525       C  0.45403436  0.61156833  0.42353225    -0.21300
C1526       C  0.45539581  0.58783683  0.43418149    -0.19900
C1527       C  0.47437240  0.58187075  0.45115173     0.19300
C1528       C  0.49203119  0.60047099  0.45832943     0.01400
C1529       C  0.51114252  0.59334573  0.47511102    -0.14600
C1530       C  0.51271615  0.56889479  0.48418651    -0.12300
C1531       C  0.49530174  0.55068403  0.47716533     0.01000
C1532       C  0.47602274  0.55730977  0.46073035    -0.24500
H1533       H  0.51860619  0.68251783  0.44719223     0.09000
H1534       H  0.52091324  0.64294037  0.46831408     0.12500
H1535       H  0.45640105  0.65680164  0.40344052     0.11300
H1536       H  0.43945214  0.61533698  0.41000805     0.12500
H1537       H  0.44178731  0.57387510  0.42869621     0.11500
H1538       H  0.52538872  0.60613966  0.48132113     0.08600
H1539       H  0.52765393  0.56413040  0.49698555     0.11800
H1540       H  0.46249884  0.54326226  0.45523245     0.13700
C1541       C  0.58080377  0.73793683  0.33424215    -0.01800
C1542       C  0.60101910  0.72566527  0.34568764    -0.09800
C1543       C  0.62481720  0.72534682  0.33468322    -0.18700
C1544       C  0.62950868  0.73757114  0.31169794     0.03700
C1545       C  0.60881382  0.74916846  0.29963700     0.17900
C1546       C  0.58486976  0.74915530  0.31083386    -0.20100
C1547       C  0.61224814  0.76127891  0.27668671    -0.21300
C1548       C  0.63573385  0.76250015  0.26560131    -0.19900
C1549       C  0.65660433  0.75178460  0.27716329     0.19300
C1550       C  0.65390723  0.73908258  0.30037561     0.01400
C1551       C  0.67585089  0.72892124  0.31128053    -0.14600
C1552       C  0.69930905  0.73141433  0.29966449    -0.12300
C1553       C  0.70171578  0.74392462  0.27678007     0.01000
C1554       C  0.68021165  0.75393213  0.26565472    -0.24500
H1555       H  0.59859326  0.71664697  0.36364839     0.09000
H1556       H  0.63931562  0.71572483  0.34482023     0.12500
H1557       H  0.56956462  0.75873184  0.30166855     0.11300
H1558       H  0.59664318  0.77010141  0.26729271     0.12500
H1559       H  0.63763017  0.77217462  0.24789684     0.11500
H1560       H  0.67546833  0.71912248  0.32888789     0.08600
H1561       H  0.71565583  0.72350450  0.30855902     0.11800
H1562       H  0.68196752  0.76365193  0.24794146     0.13700
C1563       C  0.54620376  0.97562629  0.50796805    -0.01800
C1564       C  0.56749625  0.99020898  0.50356698    -0.09800
C1565       C  0.59145563  0.97984764  0.50462985    -0.18700
C1566       C  0.59503802  0.95415226  0.50974949     0.03700
C1567       C  0.57334506  0.93928919  0.51384460     0.17900
C1568       C  0.54932592  0.95013850  0.51329306    -0.20100
C1569       C  0.57574089  0.91360229  0.51821331    -0.21300
C1570       C  0.59914359  0.90232128  0.51870940    -0.19900
C1571       C  0.62088382  0.91642191  0.51508367     0.19300
C1572       C  0.61923574  0.94257410  0.51063939     0.01400
C1573       C  0.64189353  0.95583937  0.50717319    -0.14600
C1574       C  0.66503120  0.94353202  0.50744832    -0.12300
C1575       C  0.66652761  0.91766368  0.51144113     0.01000
C1576       C  0.64426361  0.90436472  0.51557589    -0.24500
H1577       H  0.56553061  0.00981766  0.49891325     0.09000
H1578       H  0.60679278  0.99236364  0.50096205     0.12500
H1579       H  0.53300839  0.93868037  0.51675919     0.11300
H1580       H  0.55934812  0.90208893  0.52114849     0.12500
H1581       H  0.60024410  0.88235365  0.52200970     0.11500
H1582       H  0.64233625  0.97573962  0.50400528     0.08600
H1583       H  0.68183828  0.95431223  0.50422578     0.11800
H1584       H  0.64502143  0.88431996  0.51853747     0.13700
C1585       C  0.45175735  0.02711553  0.49317779    -0.01800
C1586       C  0.43433684  0.02148951  0.51186765    -0.09800
C1587       C  0.40991165  0.03066670  0.51079309    -0.18700
C1588       C  0.40195586  0.04614312  0.49088170     0.03700
C1589       C  0.41986578  0.05236550  0.47220693     0.17900
C1590       C  0.44441022  0.04266005  0.47335522    -0.20100
C1591       C  0.41318299  0.06842615  0.45263761    -0.21300
C1592       C  0.38935829  0.07886261  0.45147238    -0.19900
C1593       C  0.37125824  0.07303902  0.46947001     0.19300
C1594       C  0.37707738  0.05606313  0.48907984     0.01400
C1595       C  0.35771663  0.04985584  0.50601591    -0.14600
C1596       C  0.33404190  0.06088535  0.50421828    -0.12300
C1597       C  0.32877799  0.07872647  0.48574915     0.01000
C1598       C  0.34748610  0.08442662  0.46820914    -0.24500
H1599       H  0.43966221  0.00961004  0.52738972     0.09000
H1600       H  0.39776025  0.02553898  0.52598923     0.12500
H1601       H  0.45785534  0.04730512  0.45894937     0.11300
H1602       H  0.42663540  0.07330613  0.43831929     0.12500
H1603       H  0.38505186  0.09161239  0.43633245     0.11500
H1604       H  0.36033256  0.03660443  0.52095737     0.08600
H1605       H  0.32009819  0.05621206  0.51811556     0.11800
H1606       H  0.34366517  0.09813072  0.45377083     0.13700
C1607       C  0.52683899  0.01074931  0.54612254    -0.01800
C1608       C  0.54698095  0.02706788  0.54987231    -0.09800
C1609       C  0.55882449  0.02872647  0.57335271    -0.18700
C1610       C  0.55056955  0.01431275  0.59406545     0.03700
C1611       C  0.52956589  0.99848531  0.59021052     0.17900
C1612       C  0.51822378  0.99667777  0.56647708    -0.20100
C1613       C  0.51996044  0.98441327  0.61006734    -0.21300
C1614       C  0.53083031  0.98543404  0.63368003    -0.19900
C1615       C  0.55194883  0.00019925  0.63810534     0.19300
C1616       C  0.56225726  0.01482694  0.61838625     0.01400
C1617       C  0.58407669  0.02875298  0.62386163    -0.14600
C1618       C  0.59542707  0.02762056  0.64756931    -0.12300
C1619       C  0.58526528  0.01304598  0.66694060     0.01000
C1620       C  0.56316411  0.99979171  0.66203457    -0.24500
H1621       H  0.55370289  0.03842248  0.53453065     0.09000
H1622       H  0.57429480  0.04153769  0.57483237     0.12500
H1623       H  0.50245441  0.98424494  0.56376196     0.11300
H1624       H  0.50386503  0.97245403  0.60731243     0.12500
H1625       H  0.52286632  0.97419580  0.64854046     0.11500
H1626       H  0.59315582  0.04017505  0.60995000     0.08600
H1627       H  0.61251146  0.03798522  0.65064200     0.11800
H1628       H  0.55520517  0.98816016  0.67660707     0.13700
C1629       C  0.50816242  0.95599379  0.47232214    -0.01800
C1630       C  0.52499319  0.95231951  0.45264858    -0.09800
C1631       C  0.52697267  0.92885468  0.44091335    -0.18700
C1632       C  0.51219039  0.90824545  0.44871805     0.03700
C1633       C  0.49570300  0.91213146  0.46919826     0.17900
C1634       C  0.49367170  0.93579689  0.48047212    -0.20100
C1635       C  0.48114336  0.89241535  0.47829825    -0.21300
C1636       C  0.48215645  0.86892320  0.46724940    -0.19900
C1637       C  0.49746223  0.86455737  0.44651834     0.19300
C1638       C  0.51279953  0.88406285  0.43691161     0.01400
C1639       C  0.52743412  0.87857586  0.41555115    -0.14600
C1640       C  0.52613238  0.85510440  0.40380314    -0.12300
C1641       C  0.51067968  0.83609604  0.41318216     0.01000
C1642       C  0.49686766  0.84090743  0.43493501    -0.24500
H1643       H  0.53648274  0.96770124  0.44624683     0.09000
H1644       H  0.54021267  0.92736009  0.42582093     0.12500
H1645       H  0.48079631  0.93858304  0.49586591     0.11300
H1646       H  0.46872087  0.89522366  0.49403716     0.12500
H1647       H  0.47045558  0.85415976  0.47468979     0.11500
H1648       H  0.53954344  0.89229052  0.40711284     0.08600
H1649       H  0.53707295  0.85192438  0.38708405     0.11800
H1650       H  0.48471686  0.82648424  0.44234447     0.13700
C1651       C  0.41851420  0.92684628  0.27487058    -0.01800
C1652       C  0.44305671  0.92129297  0.26790431    -0.09800
C1653       C  0.45338426  0.89793099  0.27374632    -0.18700
C1654       C  0.43915439  0.87957007  0.28652226     0.03700
C1655       C  0.41407696  0.88537850  0.29271618     0.17900
C1656       C  0.40430897  0.90867977  0.28719263    -0.20100
C1657       C  0.39876168  0.86815002  0.30494287    -0.21300
C1658       C  0.40839063  0.84569726  0.31303794    -0.19900
C1659       C  0.43346415  0.84013257  0.30897441     0.19300
C1660       C  0.44902073  0.85623284  0.29463706     0.01400
C1661       C  0.47408059  0.84888985  0.29064552    -0.14600
C1662       C  0.48383501  0.82798820  0.30294846    -0.12300
C1663       C  0.46876598  0.81421091  0.31924852     0.01000
C1664       C  0.44349843  0.81956035  0.32110388    -0.24500
H1665       H  0.45418283  0.93489474  0.25786957     0.09000
H1666       H  0.47246281  0.89483498  0.26823625     0.12500
H1667       H  0.38512832  0.91246048  0.29243381     0.11300
H1668       H  0.37944129  0.87247103  0.30913775     0.12500
H1669       H  0.39645942  0.83312891  0.32354200     0.11500
H1670       H  0.48678044  0.85957824  0.27927515     0.08600
H1671       H  0.50355914  0.82387262  0.30134451     0.11800
H1672       H  0.43204433  0.80909090  0.33400486     0.13700
C1673       C  0.43334275  0.07159634  0.23112913    -0.01800
C1674       C  0.43437851  0.09320362  0.24572772    -0.09800
C1675       C  0.44730110  0.11418462  0.23728982    -0.18700
C1676       C  0.45889946  0.11413436  0.21355391     0.03700
C1677       C  0.45944337  0.09123719  0.19992725     0.17900
C1678       C  0.44695032  0.07016599  0.20902718    -0.20100
C1679       C  0.47077929  0.08998340  0.17644002    -0.21300
C1680       C  0.47974456  0.11149982  0.16517217    -0.19900
C1681       C  0.47760561  0.13460426  0.17724207     0.19300
C1682       C  0.46822996  0.13625216  0.20202085     0.01400
C1683       C  0.46714299  0.16021682  0.21339479    -0.14600
C1684       C  0.47342832  0.18175893  0.19995537    -0.12300
C1685       C  0.48074639  0.17980463  0.17501444     0.01000
C1686       C  0.48359070  0.15625927  0.16408872    -0.24500
H1687       H  0.42388732  0.09434193  0.26301441     0.09000
H1688       H  0.44663862  0.13052437  0.24909031     0.12500
H1689       H  0.44637912  0.05320576  0.19806532     0.11300
H1690       H  0.47152546  0.07250879  0.16617231     0.12500
H1691       H  0.48735532  0.11023756  0.14642993     0.11500
H1692       H  0.46089394  0.16298478  0.23235601     0.08600
H1693       H  0.47163182  0.19994383  0.20868465     0.11800
H1694       H  0.48981380  0.15485463  0.14485220     0.13700
C1695       C  0.26840058  0.08184000  0.42165346    -0.01800
C1696       C  0.27131441  0.05593049  0.42146811    -0.09800
C1697       C  0.27849333  0.04382498  0.39946343    -0.18700
C1698       C  0.28299112  0.05760706  0.37725012     0.03700
C1699       C  0.27831080  0.08374189  0.37752546     0.17900
C1700       C  0.27083807  0.09541226  0.39947396    -0.20100
C1701       C  0.28239741  0.09844119  0.35631035    -0.21300
C1702       C  0.29301905  0.08806956  0.33516997    -0.19900
C1703       C  0.29937710  0.06276318  0.33480755     0.19300
C1704       C  0.29341202  0.04684879  0.35529984     0.01400
C1705       C  0.29958308  0.02121463  0.35339950    -0.14600
C1706       C  0.31319957  0.01240003  0.33303696    -0.12300
C1707       C  0.32071849  0.02882237  0.31421076     0.01000
C1708       C  0.31306499  0.05361506  0.31464592    -0.24500
H1709       H  0.26903520  0.04522731  0.43850839     0.09000
H1710       H  0.28124665  0.02390608  0.40067910     0.12500
H1711       H  0.26776828  0.11548139  0.39950304     0.11300
H1712       H  0.27845676  0.11833032  0.35647987     0.12500
H1713       H  0.29715437  0.10009244  0.31937558     0.11500
H1714       H  0.29498894  0.00777267  0.36767625     0.08600
H1715       H  0.31907311  0.99301386  0.33266409     0.11800
H1716       H  0.31889942  0.06612418  0.29995637     0.13700
C1717       C  0.47670732  0.00915791  0.04801876    -0.01800
C1718       C  0.48366605  0.99074242  0.06525806    -0.09800
C1719       C  0.47578737  0.99186365  0.09011854    -0.18700
C1720       C  0.46040403  0.01156965  0.09862341     0.03700
C1721       C  0.45349814  0.03034938  0.08102019     0.17900
C1722       C  0.46166716  0.02900142  0.05599414    -0.20100
C1723       C  0.43821354  0.05019707  0.08844415    -0.21300
C1724       C  0.42866562  0.05123356  0.11260999    -0.19900
C1725       C  0.43437631  0.03260407  0.13009702     0.19300
C1726       C  0.45097620  0.01292283  0.12368355     0.01400
C1727       C  0.45680376  0.99515930  0.14248663    -0.14600
C1728       C  0.44527130  0.99597675  0.16600286    -0.12300
C1729       C  0.42756090  0.01439616  0.17153379     0.01000
C1730       C  0.42281761  0.03307057  0.15369635    -0.24500
H1731       H  0.49554039  0.97541629  0.05942415     0.09000
H1732       H  0.48182875  0.97689400  0.10212998     0.12500
H1733       H  0.45640961  0.04337297  0.04270385     0.11300
H1734       H  0.43310418  0.06472530  0.07528114     0.12500
H1735       H  0.41629747  0.06649473  0.11751821     0.11500
H1736       H  0.46975969  0.98009195  0.13941822     0.08600
H1737       H  0.44932517  0.98138891  0.17944760     0.11800
H1738       H  0.40940115  0.04764474  0.15793713     0.13700
C1739       C  0.41363919  0.98930231  0.33344935    -0.01800
C1740       C  0.43809748  0.99843411  0.33569670    -0.09800
C1741       C  0.45051302  0.99862338  0.35872790    -0.18700
C1742       C  0.43893274  0.98961383  0.38073005     0.03700
C1743       C  0.41443992  0.97960100  0.37841161     0.17900
C1744       C  0.40207374  0.97952463  0.35497660    -0.20100
C1745       C  0.40228006  0.97017826  0.39962723    -0.21300
C1746       C  0.41363897  0.97095730  0.42312419    -0.19900
C1747       C  0.43751489  0.98121372  0.42618249     0.19300
C1748       C  0.45060896  0.99049430  0.40494432     0.01400
C1749       C  0.47469740  0.00057765  0.40895774    -0.14600
C1750       C  0.48512023  0.00169426  0.43290115    -0.12300
C1751       C  0.47211779  0.99292667  0.45382650     0.01000
C1752       C  0.44829930  0.98251538  0.45035833    -0.24500
H1753       H  0.44765254  0.00607289  0.31957045     0.09000
H1754       H  0.46910409  0.00625230  0.35869750     0.12500
H1755       H  0.38318515  0.97238582  0.35365449     0.11300
H1756       H  0.38367340  0.96238811  0.39809641     0.12500
H1757       H  0.40352069  0.96372498  0.43910073     0.11500
H1758       H  0.48594433  0.00795330  0.39400711     0.08600
H1759       H  0.50351809  0.00979922  0.43518866     0.11800
H1760       H  0.43813932  0.97566091  0.46647736     0.13700
C1761       C  0.56686405  0.27789515  0.57012195    -0.01800
C1762       C  0.58477245  0.26138102  0.56078166    -0.09800
C1763       C  0.60538681  0.27049799  0.54769250    -0.18700
C1764       C  0.60833784  0.29647252  0.54368351     0.03700
C1765       C  0.58877836  0.31266559  0.55158891     0.17900
C1766       C  0.56857842  0.30326878  0.56497341    -0.20100
C1767       C  0.59001677  0.33836339  0.54729648    -0.21300
C1768       C  0.61103516  0.34868215  0.53651343    -0.19900
C1769       C  0.63136704  0.33354229  0.53035014     0.19300
C1770       C  0.63034171  0.30718230  0.53329946     0.01400
C1771       C  0.65185284  0.29305194  0.52695404    -0.14600
C1772       C  0.67388165  0.30494304  0.51936214    -0.12300
C1773       C  0.67475894  0.33099146  0.51786507     0.01000
C1774       C  0.65319052  0.34495946  0.52235022    -0.24500
H1775       H  0.58357025  0.24157972  0.56490490     0.09000
H1776       H  0.61895757  0.25694884  0.54161391     0.12500
H1777       H  0.55480833  0.31591187  0.57248628     0.11300
H1778       H  0.57492113  0.35063003  0.55293839     0.12500
H1779       H  0.61181409  0.36878668  0.53396819     0.11500
H1780       H  0.65248344  0.27298052  0.52851368     0.08600
H1781       H  0.69038875  0.29390776  0.51555988     0.11800
H1782       H  0.65359279  0.36516489  0.52039184     0.13700
C1783       C  0.53331552  0.18137412  0.67261997    -0.01800
C1784       C  0.52229717  0.17236272  0.69454296    -0.09800
C1785       C  0.53083498  0.15009333  0.70537662    -0.18700
C1786       C  0.55021372  0.13608572  0.69399705     0.03700
C1787       C  0.56153308  0.14600526  0.67213553     0.17900
C1788       C  0.55373481  0.16875301  0.66242844    -0.20100
C1789       C  0.57999054  0.13281507  0.65929409    -0.21300
C1790       C  0.58772423  0.10974562  0.66778667    -0.19900
C1791       C  0.57773848  0.09982258  0.68972645     0.19300
C1792       C  0.55883549  0.11264702  0.70326859     0.01400
C1793       C  0.55000917  0.10166450  0.72569433    -0.14600
C1794       C  0.56093984  0.07982635  0.73507875    -0.12300
C1795       C  0.58046143  0.06836071  0.72207485     0.01000
C1796       C  0.58771677  0.07768714  0.69884772    -0.24500
H1797       H  0.50635964  0.18183828  0.70263631     0.09000
H1798       H  0.52132888  0.14383176  0.72192600     0.12500
H1799       H  0.56266485  0.17584969  0.64567954     0.11300
H1800       H  0.58833468  0.14028335  0.64243196     0.12500
H1801       H  0.60213527  0.09991263  0.65748736     0.11500
H1802       H  0.53561622  0.11009588  0.73688969     0.08600
H1803       H  0.55509587  0.07275803  0.75312693     0.11800
H1804       H  0.60259605  0.06857582  0.68855778     0.13700
C1805       C  0.43381517  0.22250224  0.57716399    -0.01800
C1806       C  0.42225574  0.23518701  0.55744006    -0.09800
C1807       C  0.40158199  0.22458190  0.54536336    -0.18700
C1808       C  0.39188870  0.20117787  0.55316197     0.03700
C1809       C  0.40511785  0.18788586  0.57198884     0.17900
C1810       C  0.42601002  0.19836457  0.58325428    -0.20100
C1811       C  0.39667930  0.16479405  0.58071163    -0.21300
C1812       C  0.37451365  0.15497625  0.57200934    -0.19900
C1813       C  0.36060984  0.16782446  0.55405789     0.19300
C1814       C  0.36918068  0.19079798  0.54383511     0.01400
C1815       C  0.35433299  0.20240002  0.52521081    -0.14600
C1816       C  0.33211008  0.19129625  0.51692908    -0.12300
C1817       C  0.32410164  0.16860149  0.52719850     0.01000
C1818       C  0.33819956  0.15743435  0.54614149    -0.24500
H1819       H  0.42821767  0.25386688  0.55237869     0.09000
H1820       H  0.39290891  0.23557549  0.53087216     0.12500
H1821       H  0.43524349  0.18827376  0.59823150     0.11300
H1822       H  0.40689535  0.15462020  0.59495700     0.12500
H1823       H  0.36810235  0.13727434  0.57952067     0.11500
H1824       H  0.35961807  0.21977978  0.51647035     0.08600
H1825       H  0.32159183  0.20009180  0.50204335     0.11800
H1826       H  0.33209660  0.13992369  0.55437726     0.13700
C1827       C  0.42322710  0.42436246  0.73184957    -0.01800
C1828       C  0.44875885  0.42601566  0.72717766    -0.09800
C1829       C  0.46212895  0.40457458  0.72056127    -0.18700
C1830       C  0.45004036  0.38103731  0.71857970     0.03700
C1831       C  0.42448666  0.37950884  0.72542275     0.17900
C1832       C  0.41145716  0.40104455  0.73187367    -0.20100
C1833       C  0.41165722  0.35674743  0.72461947    -0.21300
C1834       C  0.42319610  0.33557073  0.71528593    -0.19900
C1835       C  0.44768471  0.33687191  0.70644373     0.19300
C1836       C  0.46181360  0.35932829  0.70871311     0.01400
C1837       C  0.48647259  0.35948722  0.69931091    -0.14600
C1838       C  0.49571753  0.33900737  0.68614152    -0.12300
C1839       C  0.48089509  0.31784990  0.68258072     0.01000
C1840       C  0.45749651  0.31634625  0.69368475    -0.24500
H1841       H  0.45810320  0.44397943  0.72762220     0.09000
H1842       H  0.48164426  0.40713202  0.71650324     0.12500
H1843       H  0.39172928  0.39977576  0.73620760     0.11300
H1844       H  0.39227547  0.35554725  0.73030635     0.12500
H1845       H  0.41251662  0.31840643  0.71383853     0.11500
H1846       H  0.49853824  0.37554244  0.70061847     0.08600
H1847       H  0.51393544  0.34025984  0.67743051     0.11800
H1848       H  0.44628910  0.29980143  0.69100851     0.13700
C1849       C  0.51264217  0.45747052  0.52965399    -0.01800
C1850       C  0.52126663  0.45533187  0.55424637    -0.09800
C1851       C  0.52294693  0.43184462  0.56586008    -0.18700
C1852       C  0.51582950  0.40961328  0.55319453     0.03700
C1853       C  0.50773934  0.41193952  0.52798567     0.17900
C1854       C  0.50635270  0.43563502  0.51652145    -0.20100
C1855       C  0.50054212  0.39064957  0.51451137    -0.21300
C1856       C  0.50037130  0.36713215  0.52573694    -0.19900
C1857       C  0.50746715  0.36416379  0.55076279     0.19300
C1858       C  0.51580065  0.38529493  0.56470626     0.01400
C1859       C  0.52321596  0.38117915  0.58971653    -0.14600
C1860       C  0.52157435  0.35745110  0.60063300    -0.12300
C1861       C  0.51245985  0.33674807  0.58723786     0.01000
C1862       C  0.50579762  0.34026802  0.56206475    -0.24500
H1863       H  0.52639436  0.47195513  0.56461528     0.09000
H1864       H  0.52946910  0.43174388  0.58492835     0.12500
H1865       H  0.49974111  0.43722899  0.49742051     0.11300
H1866       H  0.49453621  0.39225852  0.49522684     0.12500
H1867       H  0.49423468  0.35117937  0.51484708     0.11500
H1868       H  0.53012414  0.39601948  0.60147767     0.08600
H1869       H  0.52710991  0.35546478  0.62001067     0.11800
H1870       H  0.49903540  0.32446572  0.55131708     0.13700
C1871       C  0.49047581  0.04819998  0.52640878    -0.01800
C1872       C  0.49678778  0.06914954  0.51201482    -0.09800
C1873       C  0.49562592  0.09331736  0.52198114    -0.18700
C1874       C  0.48794772  0.09746180  0.54693479     0.03700
C1875       C  0.48088331  0.07614682  0.56130687     0.17900
C1876       C  0.48229334  0.05182749  0.55102527    -0.20100
C1877       C  0.47268086  0.07923981  0.58595024    -0.21300
C1878       C  0.47177656  0.10288998  0.59682631    -0.19900
C1879       C  0.47926760  0.12415110  0.58346955     0.19300
C1880       C  0.48731660  0.12185113  0.55826592     0.01400
C1881       C  0.49486833  0.14401632  0.54580524    -0.14600
C1882       C  0.49519876  0.16721782  0.55812225    -0.12300
C1883       C  0.48782550  0.16929468  0.58318181     0.01000
C1884       C  0.47936728  0.14762055  0.59548211    -0.24500
H1885       H  0.50302397  0.06671649  0.49289800     0.09000
H1886       H  0.50097050  0.10837488  0.50970824     0.12500
H1887       H  0.47713753  0.03570228  0.56217180     0.11300
H1888       H  0.46711555  0.06319333  0.59700422     0.12500
H1889       H  0.46555517  0.10450677  0.61603787     0.11500
H1890       H  0.50115375  0.14395031  0.52666620     0.08600
H1891       H  0.50180244  0.18352130  0.54810144     0.11800
H1892       H  0.47357168  0.14880730  0.61486663     0.13700
C1893       C  0.25950083  0.22005741  0.70240030    -0.01800
C1894       C  0.25599527  0.23540766  0.68146528    -0.09800
C1895       C  0.25747321  0.22578173  0.65722557    -0.18700
C1896       C  0.26243425  0.20016969  0.65302156     0.03700
C1897       C  0.26625863  0.18466956  0.67435906     0.17900
C1898       C  0.26496610  0.19471870  0.69869870    -0.20100
C1899       C  0.27118961  0.15917259  0.67128467    -0.21300
C1900       C  0.27241274  0.14867392  0.64752995    -0.19900
C1901       C  0.26861128  0.16335194  0.62618391     0.19300
C1902       C  0.26352706  0.18931380  0.62851483     0.01400
C1903       C  0.25937691  0.20306385  0.60621660    -0.14600
C1904       C  0.25943044  0.19130291  0.58277444    -0.12300
C1905       C  0.26411421  0.16562519  0.58067844     0.01000
C1906       C  0.26929924  0.15197863  0.60251323    -0.24500
H1907       H  0.25180072  0.25507842  0.68393901     0.09000
H1908       H  0.25448937  0.23883728  0.64219496     0.12500
H1909       H  0.26818349  0.18281447  0.71476580     0.11300
H1910       H  0.27404466  0.14721905  0.68739647     0.12500
H1911       H  0.27615409  0.12882501  0.64585241     0.11500
H1912       H  0.25548248  0.22282045  0.60630046     0.08600
H1913       H  0.25537530  0.20229210  0.56626029     0.11800
H1914       H  0.27296315  0.13208444  0.60124572     0.13700
C1915       C  0.22479181  0.19924587  0.74103979    -0.01800
C1916       C  0.23473958  0.17999446  0.75568980    -0.09800
C1917       C  0.22560364  0.15556025  0.75399089    -0.18700
C1918       C  0.20571879  0.14950872  0.73768532     0.03700
C1919       C  0.19541205  0.16922121  0.72301490     0.17900
C1920       C  0.20514560  0.19376545  0.72461186    -0.20100
C1921       C  0.17530725  0.16432047  0.70702344    -0.21300
C1922       C  0.16484752  0.14049172  0.70567047    -0.19900
C1923       C  0.17436453  0.12077214  0.72004601     0.19300
C1924       C  0.19529553  0.12480805  0.73585745     0.01400
C1925       C  0.20455519  0.10399596  0.74940381    -0.14600
C1926       C  0.19265841  0.08064694  0.74838187    -0.12300
C1927       C  0.17115258  0.07713107  0.73388258     0.01000
C1928       C  0.16258280  0.09719791  0.71921621    -0.24500
H1929       H  0.24997731  0.18391285  0.76843450     0.09000
H1930       H  0.23430306  0.14189197  0.76592594     0.12500
H1931       H  0.19741139  0.20861798  0.71321422     0.11300
H1932       H  0.16734374  0.17913370  0.69574373     0.12500
H1933       H  0.14899264  0.13752750  0.69344166     0.11500
H1934       H  0.22074222  0.10525350  0.76127202     0.08600
H1935       H  0.19983369  0.06552354  0.75976509     0.11800
H1936       H  0.14615645  0.09470212  0.70764082     0.13700
C1937       C  0.27623680  0.29329004  0.75667129    -0.01800
C1938       C  0.26161568  0.31402490  0.75018646    -0.09800
C1939       C  0.27135735  0.33830507  0.75090032    -0.18700
C1940       C  0.29632631  0.34277424  0.75819025     0.03700
C1941       C  0.31101570  0.32165206  0.76514203     0.17900
C1942       C  0.30090700  0.29725922  0.76438097    -0.20100
C1943       C  0.33578235  0.32499696  0.77269553    -0.21300
C1944       C  0.34630918  0.34877327  0.77359941    -0.19900
C1945       C  0.33246479  0.36991334  0.76675084     0.19300
C1946       C  0.30731436  0.36732124  0.75877859     0.01400
C1947       C  0.29452993  0.38939777  0.75148168    -0.14600
C1948       C  0.30638950  0.41287339  0.75174752    -0.12300
C1949       C  0.33122478  0.41529464  0.75965171     0.01000
C1950       C  0.34390372  0.39360919  0.76745643    -0.24500
H1951       H  0.24248591  0.31133497  0.74420766     0.09000
H1952       H  0.25889903  0.35320304  0.74557930     0.12500
H1953       H  0.31226845  0.28130958  0.76955997     0.11300
H1954       H  0.34713204  0.30907689  0.77796510     0.12500
H1955       H  0.36557116  0.35061859  0.77952501     0.11500
H1956       H  0.27546226  0.38906021  0.74506088     0.08600
H1957       H  0.29613584  0.42915536  0.74550140     0.11800
H1958       H  0.36317109  0.39499037  0.77349482     0.13700
C1959       C  0.29809466  0.25313688  0.72368071    -0.01800
C1960       C  0.31511277  0.23390061  0.72881287    -0.09800
C1961       C  0.33966206  0.23481310  0.71990655    -0.18700
C1962       C  0.34814986  0.25512835  0.70526384     0.03700
C1963       C  0.33069603  0.27445551  0.69973635     0.17900
C1964       C  0.30600646  0.27334236  0.70897077    -0.20100
C1965       C  0.33795368  0.29469787  0.68483037    -0.21300
C1966       C  0.36184472  0.29583782  0.67463952    -0.19900
C1967       C  0.37937272  0.27701761  0.67944750     0.19300
C1968       C  0.37307811  0.25673852  0.69543156     0.01400
C1969       C  0.39199565  0.23894880  0.70063173    -0.14600
C1970       C  0.41566065  0.24062780  0.68948745    -0.12300
C1971       C  0.42124302  0.25981851  0.67254037     0.01000
C1972       C  0.40303004  0.27814972  0.66794597    -0.24500
H1973       H  0.30937406  0.21808048  0.74007807     0.09000
H1974       H  0.35149706  0.21921934  0.72459522     0.12500
H1975       H  0.29289710  0.28817828  0.70470545     0.11300
H1976       H  0.32488146  0.30957737  0.68062623     0.12500
H1977       H  0.36660649  0.31153408  0.66273883     0.11500
H1978       H  0.38899788  0.22341487  0.71311427     0.08600
H1979       H  0.42931886  0.22622615  0.69337618     0.11800
H1980       H  0.40722376  0.29326818  0.65509942     0.13700
C1981       C  0.26503393  0.42753954  0.92841527    -0.01800
C1982       C  0.25084604  0.42841451  0.90654748    -0.09800
C1983       C  0.25938433  0.44177755  0.88587017    -0.18700
C1984       C  0.28280451  0.45395799  0.88654964     0.03700
C1985       C  0.29594091  0.45454913  0.90971078     0.17900
C1986       C  0.28674834  0.44162720  0.93043488    -0.20100
C1987       C  0.31911524  0.46635434  0.91159118    -0.21300
C1988       C  0.33066992  0.47567004  0.89041040    -0.19900
C1989       C  0.31917505  0.47344022  0.86704296     0.19300
C1990       C  0.29460438  0.46373224  0.86478868     0.01400
C1991       C  0.28376426  0.46270128  0.84059338    -0.14600
C1992       C  0.29765584  0.46907368  0.81938880    -0.12300
C1993       C  0.32248723  0.47647208  0.82193480     0.01000
C1994       C  0.33276111  0.47957836  0.84573245    -0.24500
H1995       H  0.23382390  0.41757679  0.90500689     0.09000
H1996       H  0.24798843  0.44099669  0.86929718     0.12500
H1997       H  0.29740522  0.44111605  0.94759443     0.11300
H1998       H  0.32896695  0.46715153  0.92928843     0.12500
H1999       H  0.34922408  0.48358716  0.89213792     0.11500
H2000       H  0.26495133  0.45636892  0.83739890     0.08600
H2001       H  0.28937452  0.46721234  0.80099820     0.11800
H2002       H  0.35184652  0.48607356  0.84761828     0.13700
C2003       C  0.17201622  0.47345957  0.18007706    -0.01800
C2004       C  0.19037487  0.48695836  0.16730128    -0.09800
C2005       C  0.19994353  0.47794509  0.14464886    -0.18700
C2006       C  0.19093515  0.45535557  0.13409895     0.03700
C2007       C  0.17283498  0.44159242  0.14781584     0.17900
C2008       C  0.16426605  0.45032074  0.17074519    -0.20100
C2009       C  0.16256145  0.41957214  0.13827195    -0.21300
C2010       C  0.16995999  0.41066807  0.11521281    -0.19900
C2011       C  0.18827474  0.42324130  0.10155458     0.19300
C2012       C  0.19908917  0.44578097  0.11057693     0.01400
C2013       C  0.21795410  0.45719404  0.09591168    -0.14600
C2014       C  0.22706220  0.44545911  0.07434175    -0.12300
C2015       C  0.21714288  0.42250566  0.06668455     0.01000
C2016       C  0.19676476  0.41244552  0.07950384    -0.24500
H2017       H  0.19635159  0.50507681  0.17410577     0.09000
H2018       H  0.21365221  0.48944613  0.13541044     0.12500
H2019       H  0.15014594  0.43970106  0.18069193     0.11300
H2020       H  0.14856619  0.40924349  0.14864759     0.12500
H2021       H  0.16176313  0.39346206  0.10831026     0.11500
H2022       H  0.22683264  0.47447086  0.10129322     0.08600
H2023       H  0.24275424  0.45360688  0.06452630     0.11800
H2024       H  0.18857036  0.39495268  0.07327867     0.13700
C2025       C  0.43486962  0.28103564  0.07287478    -0.01800
C2026       C  0.42236937  0.26640067  0.05515304    -0.09800
C2027       C  0.40281010  0.27661544  0.04117026    -0.18700
C2028       C  0.39578242  0.30189866  0.04442103     0.03700
C2029       C  0.41076128  0.31709314  0.06029792     0.17900
C2030       C  0.42949745  0.30641770  0.07479151    -0.20100
C2031       C  0.40616715  0.34264773  0.06271458    -0.21300
C2032       C  0.38573023  0.35322645  0.05110673    -0.19900
C2033       C  0.36902039  0.33822216  0.03776573     0.19300
C2034       C  0.37384200  0.31245689  0.03370778     0.01400
C2035       C  0.35563217  0.29823745  0.02068749    -0.14600
C2036       C  0.33294482  0.30905763  0.01332140    -0.12300
C2037       C  0.32815433  0.33425185  0.01848802     0.01000
C2038       C  0.34679086  0.34878540  0.02973155    -0.24500
H2039       H  0.42665303  0.24669408  0.05325987     0.09000
H2040       H  0.39318242  0.26427800  0.02846992     0.12500
H2041       H  0.43919420  0.31772180  0.08847504     0.11300
H2042       H  0.41803447  0.35436754  0.07423358     0.12500
H2043       H  0.38217538  0.37299905  0.05383810     0.11500
H2044       H  0.35797025  0.27857664  0.01693759     0.08600
H2045       H  0.31900971  0.29763408  0.00411759     0.11800
H2046       H  0.34374991  0.36854343  0.03315935     0.13700
C2047       C  0.16486909  0.40943553  0.01398739    -0.01800
C2048       C  0.14556541  0.39928422  0.02850669    -0.09800
C2049       C  0.12223572  0.41117495  0.03014496    -0.18700
C2050       C  0.11722961  0.43358959  0.01691972     0.03700
C2051       C  0.13701949  0.44399635  0.00256020     0.17900
C2052       C  0.16047173  0.43214319  0.00151595    -0.20100
C2053       C  0.13314487  0.46586086  0.98869685    -0.21300
C2054       C  0.10986552  0.47732787  0.98820082    -0.19900
C2055       C  0.08985332  0.46746115  0.00181466     0.19300
C2056       C  0.09325675  0.44572888  0.01679370     0.01400
C2057       C  0.07236643  0.43700496  0.03056559    -0.14600
C2058       C  0.04901537  0.44884650  0.02880286    -0.12300
C2059       C  0.04573853  0.46970214  0.01335604     0.01000
C2060       C  0.06632287  0.47906430  0.00019721    -0.24500
H2061       H  0.14838381  0.38184733  0.03840736     0.09000
H2062       H  0.10827061  0.40207898  0.04145700     0.12500
H2063       H  0.17512007  0.44025555  0.99013545     0.11300
H2064       H  0.14813197  0.47391628  0.97774160     0.12500
H2065       H  0.10744637  0.49396298  0.97689253     0.11500
H2066       H  0.07347967  0.42092971  0.04268463     0.08600
H2067       H  0.03333514  0.44147354  0.03924017     0.11800
H2068       H  0.06383905  0.49531355  0.98832362     0.13700
C2069       C  0.44962728  0.47692298  0.99472437    -0.01800
C2070       C  0.43022943  0.48658231  0.00935709    -0.09800
C2071       C  0.40594796  0.47708841  0.00756683    -0.18700
C2072       C  0.40020019  0.45714413  0.99116961     0.03700
C2073       C  0.42011139  0.44701020  0.97668552     0.17900
C2074       C  0.44447559  0.45708004  0.97838886    -0.20100
C2075       C  0.41558568  0.42676535  0.96071926    -0.21300
C2076       C  0.39188157  0.41617544  0.95899419    -0.19900
C2077       C  0.37188689  0.42571948  0.97292579     0.19300
C2078       C  0.37559433  0.44659391  0.98893324     0.01400
C2079       C  0.35451857  0.45577337  0.00209569    -0.14600
C2080       C  0.33112978  0.44402745  0.00028892    -0.12300
C2081       C  0.32782495  0.42275013  0.98535452     0.01000
C2082       C  0.34830506  0.41410609  0.97131046    -0.24500
H2083       H  0.43390991  0.50184622  0.02216921     0.09000
H2084       H  0.39212478  0.48558973  0.01945346     0.12500
H2085       H  0.45946922  0.44942986  0.96715198     0.11300
H2086       H  0.43057041  0.41886899  0.94965490     0.12500
H2087       H  0.38918880  0.40029870  0.94669189     0.11500
H2088       H  0.35559074  0.47184269  0.01419639     0.08600
H2089       H  0.31577651  0.45114978  0.01135911     0.11800
H2090       H  0.34609709  0.39775785  0.95952764     0.13700
C2091       C  0.23839486  0.33009617  0.91577045    -0.01800
C2092       C  0.22113516  0.33773163  0.89752593    -0.09800
C2093       C  0.22065094  0.32675265  0.87374977    -0.18700
C2094       C  0.23776494  0.30778166  0.86709755     0.03700
C2095       C  0.25518107  0.29996490  0.88565672     0.17900
C2096       C  0.25510487  0.31083306  0.90973269    -0.20100
C2097       C  0.27301265  0.28174484  0.87989951    -0.21300
C2098       C  0.27417767  0.27130910  0.85610025    -0.19900
C2099       C  0.25727544  0.27846932  0.83746968     0.19300
C2100       C  0.23855769  0.29656371  0.84267837     0.01400
C2101       C  0.22156368  0.30251948  0.82318605    -0.14600
C2102       C  0.22328225  0.29109407  0.79959689    -0.12300
C2103       C  0.24205403  0.27362496  0.79464687     0.01000
C2104       C  0.25898450  0.26749440  0.81364007    -0.24500
H2105       H  0.20802390  0.35260222  0.90154646     0.09000
H2106       H  0.20697813  0.33387959  0.86079747     0.12500
H2107       H  0.26877319  0.30494200  0.92347851     0.11300
H2108       H  0.28640533  0.27572629  0.89384526     0.12500
H2109       H  0.28840740  0.25743965  0.85225467     0.11500
H2110       H  0.20662622  0.31578122  0.82568451     0.08600
H2111       H  0.20999031  0.29594913  0.78513579     0.11800
H2112       H  0.27344218  0.25382591  0.80983049     0.13700
C2113       C  0.22409833  0.29935530  0.24078631    -0.01800
C2114       C  0.20144390  0.30179607  0.22795046    -0.09800
C2115       C  0.18955217  0.32515950  0.22601050    -0.18700
C2116       C  0.20022175  0.34703661  0.23660365     0.03700
C2117       C  0.22369494  0.34447524  0.24875205     0.17900
C2118       C  0.23514799  0.32085785  0.25092166    -0.20100
C2119       C  0.23555023  0.36547533  0.25893559    -0.21300
C2120       C  0.22436890  0.38894133  0.25794531    -0.19900
C2121       C  0.20085998  0.39209438  0.24697094     0.19300
C2122       C  0.18848619  0.37125744  0.23592232     0.01400
C2123       C  0.16469751  0.37556808  0.22527255    -0.14600
C2124       C  0.15339015  0.39921226  0.22637870    -0.12300
C2125       C  0.16533993  0.41958620  0.23788272     0.01000
C2126       C  0.18939744  0.41588213  0.24764309    -0.24500
H2127       H  0.19283845  0.28555996  0.21948410     0.09000
H2128       H  0.17204789  0.32554858  0.21607854     0.12500
H2129       H  0.25281246  0.31910120  0.26067127     0.11300
H2130       H  0.25355735  0.36369907  0.26799377     0.12500
H2131       H  0.23400049  0.40468904  0.26630029     0.11500
H2132       H  0.15410793  0.36086035  0.21645346     0.08600
H2133       H  0.13487829  0.40140535  0.21855498     0.11800
H2134       H  0.19891975  0.43135014  0.25664021     0.13700
C2135       C  0.23775587  0.17337368  0.41998571    -0.01800
C2136       C  0.21853171  0.16830792  0.40287696    -0.09800
C2137       C  0.21840017  0.17899159  0.37893601    -0.18700
C2138       C  0.23790148  0.19492394  0.37092434     0.03700
C2139       C  0.25716652  0.20039510  0.38847033     0.17900
C2140       C  0.25674631  0.18995080  0.41275564    -0.20100
C2141       C  0.27717463  0.21568838  0.38143475    -0.21300
C2142       C  0.27858370  0.22560278  0.35740518    -0.19900
C2143       C  0.25995776  0.22066028  0.33969936     0.19300
C2144       C  0.23925858  0.20531360  0.34611946     0.01400
C2145       C  0.22102243  0.20101144  0.32733394    -0.14600
C2146       C  0.22327815  0.21157161  0.30336158    -0.12300
C2147       C  0.24364227  0.22684262  0.29729427     0.01000
C2148       C  0.26193408  0.23112703  0.31559696    -0.24500
H2149       H  0.20371343  0.15545254  0.40785041     0.09000
H2150       H  0.20307936  0.17394221  0.36689575     0.12500
H2151       H  0.27198937  0.19366015  0.42555962     0.11300
H2152       H  0.29199244  0.21987378  0.39457734     0.12500
H2153       H  0.29441559  0.23727499  0.35263014     0.11500
H2154       H  0.20477403  0.18961397  0.33063413     0.08600
H2155       H  0.20899237  0.20788523  0.28951462     0.11800
H2156       H  0.27772045  0.24297989  0.31104993     0.13700
C2157       C  0.29871202  0.24580669  0.22497541    -0.01800
C2158       C  0.31921714  0.25557866  0.23792315    -0.09800
C2159       C  0.34330260  0.25411379  0.22801249    -0.18700
C2160       C  0.34767069  0.24307587  0.20438457     0.03700
C2161       C  0.32669951  0.23318054  0.19129078     0.17900
C2162       C  0.30256886  0.23440310  0.20175042    -0.20100
C2163       C  0.32990962  0.22234113  0.16770812    -0.21300
C2164       C  0.35338829  0.22135673  0.15665320    -0.19900
C2165       C  0.37436374  0.23108410  0.16890785     0.19300
C2166       C  0.37193203  0.24186688  0.19306862     0.01400
C2167       C  0.39385548  0.25125683  0.20458140    -0.14600
C2168       C  0.41694138  0.25072486  0.19224484    -0.12300
C2169       C  0.41909639  0.24073754  0.16810838     0.01000
C2170       C  0.39769314  0.23053683  0.15681815    -0.24500
H2171       H  0.31651174  0.26449195  0.25591384     0.09000
H2172       H  0.35804483  0.26207863  0.23914995     0.12500
H2173       H  0.28675827  0.22663791  0.19177438     0.11300
H2174       H  0.31407897  0.21477634  0.15759951     0.12500
H2175       H  0.35511774  0.21307835  0.13823940     0.11500
H2176       H  0.39372465  0.25945095  0.22297492     0.08600
H2177       H  0.43307825  0.25871979  0.20146472     0.11800
H2178       H  0.39899967  0.22270698  0.13816605     0.13700
C2179       C  0.27903334  0.20778707  0.25990815    -0.01800
C2180       C  0.30233176  0.20513780  0.27137327    -0.09800
C2181       C  0.31390196  0.18166245  0.27284849    -0.18700
C2182       C  0.30243622  0.15993642  0.26279813     0.03700
C2183       C  0.27837580  0.16268723  0.25195596     0.17900
C2184       C  0.26698234  0.18640186  0.25065904    -0.20100
C2185       C  0.26599164  0.14181923  0.24208270    -0.21300
C2186       C  0.27725306  0.11833359  0.24205713    -0.19900
C2187       C  0.30127232  0.11502927  0.25183089     0.19300
C2188       C  0.31406832  0.13572669  0.26267204     0.01400
C2189       C  0.33817954  0.13136525  0.27240411    -0.14600
C2190       C  0.34934223  0.10780119  0.27081451    -0.12300
C2191       C  0.33707526  0.08751664  0.25951650     0.01000
C2192       C  0.31277878  0.09125859  0.25035851    -0.24500
H2193       H  0.31170950  0.22133742  0.27908210     0.09000
H2194       H  0.33191146  0.18118367  0.28175916     0.12500
H2195       H  0.24879666  0.18838016  0.24198806     0.11300
H2196       H  0.24756031  0.14373912  0.23397509     0.12500
H2197       H  0.26724728  0.10271011  0.23392842     0.11500
H2198       H  0.34909124  0.14588468  0.28107803     0.08600
H2199       H  0.36804076  0.10562512  0.27821261     0.11800
H2200       H  0.30294867  0.07578422  0.24173988     0.13700
C2201       C  0.26118985  0.28067682  0.20420425    -0.01800
C2202       C  0.27191339  0.30443131  0.20168356    -0.09800
C2203       C  0.27426838  0.31569385  0.17802523    -0.18700
C2204       C  0.26608202  0.30336417  0.15597089     0.03700
C2205       C  0.25564634  0.27906846  0.15874751     0.17900
C2206       C  0.25316502  0.26816868  0.18260639    -0.20100
C2207       C  0.24750962  0.26579508  0.13769777    -0.21300
C2208       C  0.24897983  0.27625218  0.11390879    -0.19900
C2209       C  0.25856042  0.30035573  0.11041642     0.19300
C2210       C  0.26751049  0.31420917  0.13134537     0.01400
C2211       C  0.27703576  0.33842651  0.12665393    -0.14600
C2212       C  0.27681107  0.34870432  0.10251293    -0.12300
C2213       C  0.26722096  0.33534556  0.08198770     0.01000
C2214       C  0.25859808  0.31088410  0.08614782    -0.24500
H2215       H  0.27843977  0.31434213  0.21808213     0.09000
H2216       H  0.28253845  0.33405523  0.17756763     0.12500
H2217       H  0.24482227  0.24977701  0.18447155     0.11300
H2218       H  0.23969709  0.24719929  0.13966849     0.12500
H2219       H  0.24221093  0.26549857  0.09812342     0.11500
H2220       H  0.28434666  0.35008571  0.14137171     0.08600
H2221       H  0.28362691  0.36761580  0.10007123     0.11800
H2222       H  0.25104043  0.30028167  0.07061249     0.13700
C2223       C  0.92806021  0.27688155  0.41543935    -0.01800
C2224       C  0.91953501  0.26565984  0.43746089    -0.09800
C2225       C  0.89666866  0.27291319  0.44787879    -0.18700
C2226       C  0.88162050  0.29126550  0.43610123     0.03700
C2227       C  0.89068937  0.30241184  0.41379017     0.17900
C2228       C  0.91382405  0.29577078  0.40430986    -0.20100
C2229       C  0.87657443  0.31999778  0.40066492    -0.21300
C2230       C  0.85375665  0.32764245  0.40975779    -0.19900
C2231       C  0.84492039  0.31823490  0.43241194     0.19300
C2232       C  0.85826235  0.29952493  0.44576025     0.01400
C2233       C  0.84812206  0.29095789  0.46867733    -0.14600
C2234       C  0.82703737  0.30244327  0.47899808    -0.12300
C2235       C  0.81559022  0.32229997  0.46647865     0.01000
C2236       C  0.82369069  0.32896923  0.44264670    -0.24500
H2237       H  0.93015719  0.25082837  0.44622303     0.09000
H2238       H  0.89102433  0.26351727  0.46478617     0.12500
H2239       H  0.92027175  0.30482924  0.38735249     0.11300
H2240       H  0.88336233  0.32811953  0.38338109     0.12500
H2241       H  0.84341821  0.34173720  0.39951032     0.11500
H2242       H  0.85682478  0.27646666  0.47963411     0.08600
H2243       H  0.82087478  0.29708161  0.49752413     0.11800
H2244       H  0.81476385  0.34435569  0.43296869     0.13700
C2245       C  0.17560528  0.17494298  0.48180519    -0.01800
C2246       C  0.17751098  0.19918755  0.47255335    -0.09800
C2247       C  0.15601064  0.21206736  0.46548666    -0.18700
C2248       C  0.13216637  0.20067694  0.46743169     0.03700
C2249       C  0.13048021  0.17695904  0.47921779     0.17900
C2250       C  0.15215277  0.16439505  0.48624963    -0.20100
C2251       C  0.10738332  0.16514888  0.48237560    -0.21300
C2252       C  0.08598826  0.17539329  0.47198862    -0.19900
C2253       C  0.08739512  0.19752182  0.45816563     0.19300
C2254       C  0.11029693  0.21101951  0.45652856     0.01400
C2255       C  0.11075447  0.23324528  0.44229436    -0.14600
C2256       C  0.09006666  0.24043222  0.42845354    -0.12300
C2257       C  0.06833509  0.22611759  0.42892804     0.01000
C2258       C  0.06651673  0.20535592  0.44450854    -0.24500
H2259       H  0.19565565  0.20761576  0.46953929     0.09000
H2260       H  0.15879322  0.23044206  0.45774993     0.12500
H2261       H  0.15087390  0.14571946  0.49401910     0.11300
H2262       H  0.10606513  0.14727340  0.49184216     0.12500
H2263       H  0.06853751  0.16526657  0.47361170     0.11500
H2264       H  0.12709197  0.24481267  0.44043536     0.08600
H2265       H  0.09137290  0.25672147  0.41645443     0.11800
H2266       H  0.04943986  0.19449302  0.44476760     0.13700
C2267       C  0.07515699  0.43927033  0.28490617    -0.01800
C2268       C  0.05614822  0.42746017  0.27147275    -0.09800
C2269       C  0.04618514  0.40491080  0.28008927    -0.18700
C2270       C  0.05561243  0.39356413  0.30206646     0.03700
C2271       C  0.07320095  0.40720487  0.31660710     0.17900
C2272       C  0.08206100  0.43016588  0.30832524    -0.20100
C2273       C  0.08339185  0.39712128  0.33839265    -0.21300
C2274       C  0.07729474  0.37312168  0.34564002    -0.19900
C2275       C  0.06044981  0.35900486  0.33155468     0.19300
C2276       C  0.04898797  0.36897114  0.30978883     0.01400
C2277       C  0.03163202  0.35374962  0.29678130    -0.14600
C2278       C  0.02467659  0.33035228  0.30619845    -0.12300
C2279       C  0.03537795  0.32142685  0.32829833     0.01000
C2280       C  0.05432101  0.33520162  0.33987060    -0.24500
H2281       H  0.05051853  0.43447005  0.25332186     0.09000
H2282       H  0.03231513  0.39613139  0.26843293     0.12500
H2283       H  0.09651493  0.43967482  0.31890523     0.11300
H2284       H  0.09676052  0.40756674  0.34947089     0.12500
H2285       H  0.08575823  0.36557332  0.36243023     0.11500
H2286       H  0.02239910  0.35980890  0.27995015     0.08600
H2287       H  0.00998864  0.31992573  0.29696805     0.11800
H2288       H  0.06312993  0.32814041  0.35672056     0.13700
C2289       C  0.98926245  0.33213999  0.41583680    -0.01800
C2290       C  0.97441522  0.35155382  0.40624891    -0.09800
C2291       C  0.97369846  0.37517423  0.41769389    -0.18700
C2292       C  0.98821508  0.38052120  0.43914715     0.03700
C2293       C  0.00323274  0.36081463  0.44889107     0.17900
C2294       C  0.00338194  0.33694365  0.43745983    -0.20100
C2295       C  0.01848513  0.36519471  0.46970208    -0.21300
C2296       C  0.01945190  0.38870167  0.48087177    -0.19900
C2297       C  0.00496311  0.40850458  0.47178802     0.19300
C2298       C  0.98880486  0.40471679  0.45102301     0.01400
C2299       C  0.97413796  0.42537790  0.44312581    -0.14600
C2300       C  0.97582853  0.44876364  0.45508396    -0.12300
C2301       C  0.99226021  0.45239267  0.47511369     0.01000
C2302       C  0.00668596  0.43213637  0.48335397    -0.24500
H2303       H  0.96343014  0.34855879  0.38950114     0.09000
H2304       H  0.96197652  0.38906740  0.40901029     0.12500
H2305       H  0.01530734  0.32235174  0.44488300     0.11300
H2306       H  0.03003491  0.35037089  0.47724324     0.12500
H2307       H  0.03170575  0.39142282  0.49676294     0.11500
H2308       H  0.96114960  0.42398883  0.42778542     0.08600
H2309       H  0.96443664  0.46414435  0.44854050     0.11800
H2310       H  0.01932183  0.43485568  0.49896824     0.13700
C2311       C  0.92335331  0.24178371  0.32411437    -0.01800
C2312       C  0.91839411  0.25916906  0.30516549    -0.09800
C2313       C  0.89476314  0.26022550  0.29379008    -0.18700
C2314       C  0.87534626  0.24358564  0.30082769     0.03700
C2315       C  0.88101664  0.22509523  0.31900034     0.17900
C2316       C  0.90451569  0.22468571  0.33067054    -0.20100
C2317       C  0.86308851  0.20726472  0.32574160    -0.21300
C2318       C  0.83937381  0.20761373  0.31515585    -0.19900
C2319       C  0.83268871  0.22620150  0.29802594     0.19300
C2320       C  0.85053103  0.24459057  0.29070097     0.01400
C2321       C  0.84252796  0.26345596  0.27402413    -0.14600
C2322       C  0.81805849  0.26386364  0.26490445    -0.12300
C2323       C  0.80069563  0.24555660  0.27189583     0.01000
C2324       C  0.80813743  0.22670202  0.28844624    -0.24500
H2325       H  0.93250093  0.27263141  0.29977620     0.09000
H2326       H  0.89220009  0.27430973  0.27960824     0.12500
H2327       H  0.90814889  0.21094400  0.34513678     0.11300
H2328       H  0.86743520  0.19291943  0.33937299     0.12500
H2329       H  0.82598401  0.19351162  0.32081047     0.11500
H2330       H  0.85466871  0.27832397  0.26793719     0.08600
H2331       H  0.81260664  0.27860083  0.25212213     0.11800
H2332       H  0.79471541  0.21258620  0.29402400     0.13700
C2333       C  0.08600804  0.26166401  0.33571795    -0.01800
C2334       C  0.08761174  0.25512289  0.31037722    -0.09800
C2335       C  0.11049491  0.25544625  0.29782067    -0.18700
C2336       C  0.13279286  0.26225423  0.31028789     0.03700
C2337       C  0.13098651  0.26950431  0.33580728     0.17900
C2338       C  0.10778865  0.26922996  0.34817481    -0.20100
C2339       C  0.15242247  0.27662091  0.34898728    -0.21300
C2340       C  0.17567820  0.27671543  0.33742065    -0.19900
C2341       C  0.17819523  0.26951639  0.31239868     0.19300
C2342       C  0.15680014  0.26199773  0.29847843     0.01400
C2343       C  0.16048605  0.25414223  0.27350172    -0.14600
C2344       C  0.18429801  0.25374376  0.26293119    -0.12300
C2345       C  0.20520435  0.26152735  0.27655595     0.01000
C2346       C  0.20205863  0.26946366  0.30130063    -0.24500
H2347       H  0.07111744  0.24930715  0.30022060     0.09000
H2348       H  0.11010483  0.25010777  0.27841467     0.12500
H2349       H  0.10683867  0.27431022  0.36778228     0.11300
H2350       H  0.15120312  0.28213139  0.36845595     0.12500
H2351       H  0.19187832  0.28231765  0.34820885     0.11500
H2352       H  0.14544527  0.24775593  0.26177264     0.08600
H2353       H  0.18650684  0.24689428  0.24399969     0.11800
H2354       H  0.21829583  0.27508210  0.31203164     0.13700
C2355       C  0.82697721  0.46384956  0.68594175    -0.01800
C2356       C  0.80611628  0.47595284  0.67598109    -0.09800
C2357       C  0.79534597  0.46727340  0.65380260    -0.18700
C2358       C  0.80573615  0.44659601  0.64093989     0.03700
C2359       C  0.82577915  0.43353455  0.65247848     0.17900
C2360       C  0.83550758  0.44174960  0.67509642    -0.20100
C2361       C  0.83722995  0.41328340  0.64070666    -0.21300
C2362       C  0.82975198  0.40606563  0.61710486    -0.19900
C2363       C  0.81021363  0.41851119  0.60515142     0.19300
C2364       C  0.79757902  0.43872067  0.61685399     0.01400
C2365       C  0.77744197  0.44997029  0.60386083    -0.14600
C2366       C  0.76927585  0.44032596  0.58095018    -0.12300
C2367       C  0.78137588  0.41974721  0.57035515     0.01000
C2368       C  0.80261691  0.40997434  0.58186430    -0.24500
H2369       H  0.79926373  0.49309261  0.68430312     0.09000
H2370       H  0.77986796  0.47787772  0.64653235     0.12500
H2371       H  0.85142142  0.43212140  0.68316069     0.11300
H2372       H  0.85253534  0.40338828  0.64952819     0.12500
H2373       H  0.83916951  0.39047694  0.60822791     0.11500
H2374       H  0.76703376  0.46547851  0.61138424     0.08600
H2375       H  0.75272346  0.44804708  0.57227285     0.11800
H2376       H  0.81232178  0.39427612  0.57342985     0.13700
C2377       C  0.83030210  0.51228289  0.82877466    -0.01800
C2378       C  0.80434115  0.51431784  0.82902629    -0.09800
C2379       C  0.79215210  0.52198315  0.85089118    -0.18700
C2380       C  0.80594645  0.52812347  0.87272124     0.03700
C2381       C  0.83217952  0.52449346  0.87233726     0.17900
C2382       C  0.84381779  0.51597835  0.85081024    -0.20100
C2383       C  0.84705390  0.53101127  0.89279682    -0.21300
C2384       C  0.83669348  0.54319278  0.91305372    -0.19900
C2385       C  0.81114309  0.54813061  0.91358557     0.19300
C2386       C  0.79511018  0.53937320  0.89423915     0.01400
C2387       C  0.76917978  0.54347267  0.89682691    -0.14600
C2388       C  0.75997614  0.55762793  0.91671409    -0.12300
C2389       C  0.77640019  0.56813604  0.93409051     0.01000
C2390       C  0.80172657  0.56287271  0.93283244    -0.24500
H2391       H  0.79367112  0.51117218  0.81211324     0.09000
H2392       H  0.77220566  0.52423006  0.84975559     0.12500
H2393       H  0.86394624  0.51363539  0.85079648     0.11300
H2394       H  0.86706087  0.52798709  0.89250475     0.12500
H2395       H  0.84881236  0.54936190  0.92808220     0.11500
H2396       H  0.75574144  0.53646206  0.88357008     0.08600
H2397       H  0.74017338  0.56158795  0.91771456     0.11800
H2398       H  0.81428019  0.57107118  0.94630361     0.13700
C2399       C  0.91613229  0.51286181  0.66980190    -0.01800
C2400       C  0.90582368  0.52703396  0.65023920    -0.09800
C2401       C  0.91711958  0.52786473  0.62650702    -0.18700
C2402       C  0.93905928  0.51406282  0.62124428     0.03700
C2403       C  0.94969506  0.50009567  0.64125430     0.17900
C2404       C  0.93848741  0.49993896  0.66517154    -0.20100
C2405       C  0.97107514  0.48564466  0.63711600    -0.21300
C2406       C  0.98175482  0.48411789  0.61344752    -0.19900
C2407       C  0.97165290  0.49731680  0.59323644     0.19300
C2408       C  0.95048791  0.51296331  0.59683656     0.01400
C2409       C  0.94171368  0.52650399  0.57575601    -0.14600
C2410       C  0.95315584  0.52411490  0.55215814    -0.12300
C2411       C  0.97344546  0.50795515  0.54866946     0.01000
C2412       C  0.98261776  0.49478596  0.56939264    -0.24500
H2413       H  0.88861156  0.53723149  0.65315125     0.09000
H2414       H  0.90788015  0.53889832  0.61241792     0.12500
H2415       H  0.94663423  0.48870629  0.67993539     0.11300
H2416       H  0.97933285  0.47497712  0.65222128     0.12500
H2417       H  0.99801782  0.47235409  0.61090273     0.11500
H2418       H  0.92609739  0.53912660  0.57700108     0.08600
H2419       H  0.94602054  0.53479667  0.53651375     0.11800
H2420       H  0.99854558  0.48253658  0.56688583     0.13700
C2421       C  0.92347270  0.48433553  0.83279855    -0.01800
C2422       C  0.91923279  0.46356769  0.84834533    -0.09800
C2423       C  0.92984527  0.46206004  0.87229123    -0.18700
C2424       C  0.94477056  0.48167942  0.88183655     0.03700
C2425       C  0.94979805  0.50222301  0.86559243     0.17900
C2426       C  0.93945477  0.50320520  0.84133734    -0.20100
C2427       C  0.96445494  0.52218738  0.87392207    -0.21300
C2428       C  0.97392196  0.52252052  0.89809053    -0.19900
C2429       C  0.96895582  0.50294732  0.91470367     0.19300
C2430       C  0.95443643  0.48208842  0.90696245     0.01400
C2431       C  0.94998129  0.46300154  0.92491593    -0.14600
C2432       C  0.95937293  0.46485925  0.94946444    -0.12300
C2433       C  0.97353279  0.48567174  0.95678841     0.01000
C2434       C  0.97837729  0.50437971  0.93914651    -0.24500
H2435       H  0.90705036  0.44862798  0.84216564     0.09000
H2436       H  0.92549309  0.44566537  0.88317183     0.12500
H2437       H  0.94269399  0.51944857  0.82963460     0.11300
H2438       H  0.96839750  0.53787928  0.86171238     0.12500
H2439       H  0.98502803  0.53843815  0.90394463     0.11500
H2440       H  0.93916972  0.44656953  0.92055339     0.08600
H2441       H  0.95550889  0.45009260  0.96274168     0.11800
H2442       H  0.98969726  0.52031589  0.94460133     0.13700
C2443       C  0.77191548  0.69751343  0.75406230    -0.01800
C2444       C  0.78991167  0.69369888  0.77271093    -0.09800
C2445       C  0.80109521  0.67008480  0.77609841    -0.18700
C2446       C  0.79451843  0.64928228  0.76092764     0.03700
C2447       C  0.77624825  0.65335651  0.74206007     0.17900
C2448       C  0.76535481  0.67720051  0.73875921    -0.20100
C2449       C  0.76887204  0.63356949  0.72654806    -0.21300
C2450       C  0.77936647  0.60985592  0.72908554    -0.19900
C2451       C  0.79764895  0.60510834  0.74719216     0.19300
C2452       C  0.80541971  0.62470076  0.76351454     0.01400
C2453       C  0.82402545  0.61881325  0.78135280    -0.14600
C2454       C  0.83511823  0.59500346  0.78218056    -0.12300
C2455       C  0.82795529  0.57585634  0.76562705     0.01000
C2456       C  0.80868001  0.58103356  0.74853856    -0.24500
H2457       H  0.79522809  0.70904728  0.78480617     0.09000
H2458       H  0.81475911  0.66861237  0.79082029     0.12500
H2459       H  0.75136819  0.67995639  0.72436361     0.11300
H2460       H  0.75490231  0.63648372  0.71218618     0.12500
H2461       H  0.77328579  0.59513477  0.71655642     0.11500
H2462       H  0.83082592  0.63245847  0.79454763     0.08600
H2463       H  0.84993931  0.59174177  0.79556163     0.11800
H2464       H  0.80308612  0.56667383  0.73536248     0.13700
C2465       C  0.67471930  0.07612697  0.76133646    -0.01800
C2466       C  0.69464823  0.08001677  0.74478445    -0.09800
C2467       C  0.70657566  0.10339575  0.74328941    -0.18700
C2468       C  0.69899612  0.12377686  0.75847411     0.03700
C2469       C  0.67992544  0.11918735  0.77635904     0.17900
C2470       C  0.66803443  0.09569551  0.77754447    -0.20100
C2471       C  0.67226242  0.13831057  0.79251678    -0.21300
C2472       C  0.68261950  0.16214379  0.79093757    -0.19900
C2473       C  0.70072695  0.16769008  0.77293081     0.19300
C2474       C  0.70924467  0.14858127  0.75641419     0.01400
C2475       C  0.72717660  0.15536950  0.73823225    -0.14600
C2476       C  0.73624487  0.17990117  0.73664233    -0.12300
C2477       C  0.72805484  0.19853488  0.75314111     0.01000
C2478       C  0.71024307  0.19230315  0.77127015    -0.24500
H2479       H  0.70033673  0.06528136  0.73215147     0.09000
H2480       H  0.72141142  0.10509170  0.72975598     0.12500
H2481       H  0.65291940  0.09285954  0.79073626     0.11300
H2482       H  0.65789257  0.13488177  0.80636291     0.12500
H2483       H  0.67609412  0.17648490  0.80366173     0.11500
H2484       H  0.73439433  0.14215993  0.72483029     0.08600
H2485       H  0.75007333  0.18434869  0.72255769     0.11800
H2486       H  0.70387329  0.20663303  0.78410114     0.13700
C2487       C  0.76097136  0.21943798  0.79348229    -0.01800
C2488       C  0.75539829  0.23448867  0.81420532    -0.09800
C2489       C  0.75511996  0.22467954  0.83847481    -0.18700
C2490       C  0.76042564  0.19917898  0.84299590     0.03700
C2491       C  0.76621587  0.18393256  0.82190760     0.17900
C2492       C  0.76656106  0.19413558  0.79751962    -0.20100
C2493       C  0.77150917  0.15853382  0.82528842    -0.21300
C2494       C  0.77147992  0.14797445  0.84909093    -0.19900
C2495       C  0.76604574  0.16246356  0.87024123     0.19300
C2496       C  0.76021598  0.18823257  0.86757887     0.01400
C2497       C  0.75436853  0.20175306  0.88965878    -0.14600
C2498       C  0.75414420  0.19010964  0.91323217    -0.12300
C2499       C  0.76007479  0.16472017  0.91577314     0.01000
C2500       C  0.76625432  0.15117758  0.89405033    -0.24500
H2501       H  0.75087190  0.25404569  0.81151707     0.09000
H2502       H  0.75059587  0.23752672  0.85332096     0.12500
H2503       H  0.77097977  0.18235676  0.78163891     0.11300
H2504       H  0.77577752  0.14672710  0.80938723     0.12500
H2505       H  0.77573234  0.12824994  0.85096705     0.11500
H2506       H  0.74964576  0.22134044  0.88928815     0.08600
H2507       H  0.74926412  0.20105207  0.92955354     0.11800
H2508       H  0.77089257  0.13151541  0.89555272     0.13700
C2509       C  0.70828577  0.23713563  0.71871816    -0.01800
C2510       C  0.70605338  0.22942092  0.69380553    -0.09800
C2511       C  0.68260686  0.22843304  0.68207995    -0.18700
C2512       C  0.66049124  0.23532826  0.69495023     0.03700
C2513       C  0.66295772  0.24302478  0.72028686     0.17900
C2514       C  0.68659034  0.24365955  0.73186572    -0.20100
C2515       C  0.64185929  0.25042915  0.73384640    -0.21300
C2516       C  0.61833884  0.25072674  0.72275031    -0.19900
C2517       C  0.61515233  0.24342212  0.69780251     0.19300
C2518       C  0.63612159  0.23529048  0.68361369     0.01400
C2519       C  0.63173102  0.22771132  0.65865898    -0.14600
C2520       C  0.60783107  0.22890310  0.64807259    -0.12300
C2521       C  0.58729014  0.23770517  0.66178869     0.01000
C2522       C  0.59113880  0.24458912  0.68686835    -0.24500
H2523       H  0.72256677  0.22432838  0.68331366     0.09000
H2524       H  0.68242092  0.22251008  0.66281540     0.12500
H2525       H  0.68825213  0.24982265  0.75112454     0.11300
H2526       H  0.64359473  0.25631953  0.75316727     0.12500
H2527       H  0.60252088  0.25685838  0.73375366     0.11500
H2528       H  0.64646652  0.22094701  0.64674344     0.08600
H2529       H  0.60557369  0.22335247  0.62872150     0.11800
H2530       H  0.57551794  0.25134390  0.69779976     0.13700
C2531       C  0.74587807  0.27371046  0.70062742    -0.01800
C2532       C  0.72850003  0.29291485  0.69702906    -0.09800
C2533       C  0.72605757  0.30461491  0.67359272    -0.18700
C2534       C  0.74086381  0.29722103  0.65284502     0.03700
C2535       C  0.75830170  0.27756123  0.65673777     0.17900
C2536       C  0.76077276  0.26628483  0.68041842    -0.20100
C2537       C  0.77312529  0.26909495  0.63692034    -0.21300
C2538       C  0.77105707  0.27963536  0.61321297    -0.19900
C2539       C  0.75432778  0.29920447  0.60864009     0.19300
C2540       C  0.73907723  0.30843700  0.62841249     0.01400
C2541       C  0.72302505  0.32867577  0.62284223    -0.14600
C2542       C  0.72253847  0.33951106  0.59894801    -0.12300
C2543       C  0.73767880  0.33048102  0.57948975     0.01000
C2544       C  0.75325818  0.30997012  0.58450163    -0.24500
H2545       H  0.71677610  0.29885213  0.71241124     0.09000
H2546       H  0.71227262  0.31920892  0.67219172     0.12500
H2547       H  0.77417126  0.25133399  0.68314156     0.11300
H2548       H  0.78640424  0.25408082  0.63975066     0.12500
H2549       H  0.78284073  0.27254441  0.59835532     0.11500
H2550       H  0.71100103  0.33689653  0.63673981     0.08600
H2551       H  0.71047990  0.35545746  0.59581244     0.11800
H2552       H  0.76545250  0.30305714  0.56988703     0.13700
C2553       C  0.78196795  0.29141393  0.73785753    -0.01800
C2554       C  0.80606729  0.29346734  0.72799481    -0.09800
C2555       C  0.81797196  0.31685135  0.72649070    -0.18700
C2556       C  0.80608635  0.33897380  0.73506492     0.03700
C2557       C  0.78138573  0.33665608  0.74451090     0.17900
C2558       C  0.76966687  0.31313660  0.74572242    -0.20100
C2559       C  0.76858826  0.35777242  0.75312414    -0.21300
C2560       C  0.77993086  0.38116212  0.75317454    -0.19900
C2561       C  0.80443252  0.38413568  0.74465730     0.19300
C2562       C  0.81782330  0.36318439  0.73516117     0.01400
C2563       C  0.84249561  0.36740255  0.72674196    -0.14600
C2564       C  0.85356093  0.39112213  0.72847358    -0.12300
C2565       C  0.84053928  0.41157312  0.73857084     0.01000
C2566       C  0.81576562  0.40790818  0.74618885    -0.24500
H2567       H  0.81579651  0.27687414  0.72169984     0.09000
H2568       H  0.83657213  0.31699837  0.71886889     0.12500
H2569       H  0.75096447  0.31157250  0.75330894     0.11300
H2570       H  0.74971002  0.35613589  0.76020778     0.12500
H2571       H  0.76955168  0.39701771  0.76031553     0.11500
H2572       H  0.85384652  0.35264546  0.71910734     0.08600
H2573       H  0.87269399  0.39328864  0.72233557     0.11800
H2574       H  0.80539593  0.42349763  0.75393042     0.13700
C2575       C  0.51698587  0.82679618  0.82904466    -0.01800
C2576       C  0.51561273  0.82900341  0.80307217    -0.09800
C2577       C  0.52151986  0.85182552  0.79160855    -0.18700
C2578       C  0.52910725  0.87276218  0.80607828     0.03700
C2579       C  0.52914767  0.87035874  0.83249688     0.17900
C2580       C  0.52263496  0.84784611  0.84353350    -0.20100
C2581       C  0.53707448  0.88992266  0.84791831    -0.21300
C2582       C  0.54729517  0.91123667  0.83756915    -0.19900
C2583       C  0.54894865  0.91361938  0.81165057     0.19300
C2584       C  0.53840885  0.89531173  0.79547019     0.01400
C2585       C  0.53922791  0.89978678  0.76942551    -0.14600
C2586       C  0.55271525  0.92001577  0.75992432    -0.12300
C2587       C  0.56561261  0.93589754  0.77617217     0.01000
C2588       C  0.56277130  0.93330981  0.80185199    -0.24500
H2589       H  0.51080595  0.81296581  0.79166957     0.09000
H2590       H  0.52103475  0.85223205  0.77146564     0.12500
H2591       H  0.52283820  0.84652083  0.86378785     0.11300
H2592       H  0.53672957  0.88812194  0.86810954     0.12500
H2593       H  0.55478452  0.92550968  0.84988351     0.11500
H2594       H  0.53051961  0.88748342  0.75604269     0.08600
H2595       H  0.55470444  0.92206906  0.73986508     0.11800
H2596       H  0.57286880  0.94552763  0.81431853     0.13700
C2597       C  0.57169268  0.72044104  0.91698360    -0.01800
C2598       C  0.57976165  0.73052274  0.93972721    -0.09800
C2599       C  0.60259705  0.72306619  0.94999547    -0.18700
C2600       C  0.61808128  0.70572401  0.93731406     0.03700
C2601       C  0.60920163  0.69531157  0.91456003     0.17900
C2602       C  0.58603371  0.70206984  0.90522553    -0.20100
C2603       C  0.62367287  0.67861314  0.90070220    -0.21300
C2604       C  0.64687686  0.67145814  0.90922764    -0.19900
C2605       C  0.65575987  0.68042072  0.93205188     0.19300
C2606       C  0.64182438  0.69795665  0.94636399     0.01400
C2607       C  0.65193209  0.70606096  0.96945498    -0.14600
C2608       C  0.67355302  0.69503904  0.97904365    -0.12300
C2609       C  0.68565765  0.67623413  0.96556003     0.01000
C2610       C  0.67773654  0.67039370  0.94144291    -0.24500
H2611       H  0.56891181  0.74480289  0.94909438     0.09000
H2612       H  0.60793333  0.73168973  0.96739780     0.12500
H2613       H  0.57977486  0.69380511  0.88778352     0.11300
H2614       H  0.61696910  0.67097766  0.88315551     0.12500
H2615       H  0.65758039  0.65816415  0.89830837     0.11500
H2616       H  0.64283586  0.71972157  0.98111109     0.08600
H2617       H  0.67962877  0.69980851  0.99777272     0.11800
H2618       H  0.68742646  0.65604624  0.93088568     0.13700
C2619       C  0.46135906  0.68371741  0.82764916    -0.01800
C2620       C  0.44051439  0.67212550  0.83837125    -0.09800
C2621       C  0.43165073  0.64978997  0.82898012    -0.18700
C2622       C  0.44315242  0.63862851  0.80817307     0.03700
C2623       C  0.46125067  0.65250202  0.79466642     0.17900
C2624       C  0.47071903  0.67486307  0.80481609    -0.20100
C2625       C  0.47012105  0.64336965  0.77176582    -0.21300
C2626       C  0.46142385  0.62059813  0.76235622    -0.19900
C2627       C  0.44511731  0.60576698  0.77653222     0.19300
C2628       C  0.43681569  0.61427676  0.80022095     0.01400
C2629       C  0.42286277  0.59792073  0.81542602    -0.14600
C2630       C  0.41450654  0.57531405  0.80611160    -0.12300
C2631       C  0.42006160  0.56827271  0.78161828     0.01000
C2632       C  0.43639945  0.58280698  0.76719435    -0.24500
H2633       H  0.43198545  0.67948459  0.85520564     0.09000
H2634       H  0.41584742  0.64156730  0.83840528     0.12500
H2635       H  0.48623056  0.68432865  0.79589806     0.11300
H2636       H  0.48357365  0.65398857  0.76099924     0.12500
H2637       H  0.46800230  0.61424034  0.74428544     0.11500
H2638       H  0.41796440  0.60226517  0.83450732     0.08600
H2639       H  0.40235733  0.56392975  0.81763171     0.11800
H2640       H  0.44092569  0.57711516  0.74827436     0.13700
C2641       C  0.51070502  0.66799821  0.91632967    -0.01800
C2642       C  0.52750874  0.64946901  0.90844470    -0.09800
C2643       C  0.52831961  0.62594087  0.92014547    -0.18700
C2644       C  0.51175741  0.61981364  0.93984938     0.03700
C2645       C  0.49461658  0.63861694  0.94761882     0.17900
C2646       C  0.49464500  0.66246154  0.93630446    -0.20100
C2647       C  0.47694921  0.63330711  0.96614116    -0.21300
C2648       C  0.47556677  0.60965230  0.97684828    -0.19900
C2649       C  0.49225639  0.59078584  0.96986355     0.19300
C2650       C  0.51100623  0.59562601  0.95167915     0.01400
C2651       C  0.52799647  0.57599523  0.94623127    -0.14600
C2652       C  0.52597236  0.55249550  0.95791743    -0.12300
C2653       C  0.50689250  0.54778054  0.97516982     0.01000
C2654       C  0.49022190  0.56706844  0.98106064    -0.24500
H2655       H  0.53999323  0.65312498  0.89294177     0.09000
H2656       H  0.54159286  0.61264657  0.91290289     0.12500
H2657       H  0.48119172  0.67637834  0.94226917     0.11300
H2658       H  0.46373442  0.64744994  0.97207396     0.12500
H2659       H  0.46135194  0.60611741  0.99081304     0.11500
H2660       H  0.54309910  0.57835451  0.93313102     0.08600
H2661       H  0.53917727  0.53788615  0.95331195     0.11800
H2662       H  0.47561144  0.56354414  0.99464087     0.13700
C2663       C  0.57579346  0.76089257  0.82497369    -0.01800
C2664       C  0.58018817  0.74304146  0.80631802    -0.09800
C2665       C  0.60348523  0.74139801  0.79448448    -0.18700
C2666       C  0.62329531  0.75780685  0.80078897     0.03700
C2667       C  0.61812807  0.77720889  0.81818202     0.17900
C2668       C  0.59472373  0.77837344  0.83028589    -0.20100
C2669       C  0.63660391  0.79489284  0.82389572    -0.21300
C2670       C  0.66031481  0.79334686  0.81322630    -0.19900
C2671       C  0.66649200  0.77365434  0.79710156     0.19300
C2672       C  0.64806447  0.75550623  0.79075795     0.01400
C2673       C  0.65546450  0.73540285  0.77527961    -0.14600
C2674       C  0.67986535  0.73359906  0.76622651    -0.12300
C2675       C  0.69780697  0.75176416  0.77192332     0.01000
C2676       C  0.69103201  0.77180203  0.78747789    -0.24500
H2677       H  0.56596100  0.72938459  0.80174066     0.09000
H2678       H  0.60553063  0.72686151  0.78067520     0.12500
H2679       H  0.59147383  0.79250836  0.84444769     0.11300
H2680       H  0.63274396  0.80995627  0.83687888     0.12500
H2681       H  0.67411963  0.80732854  0.81812550     0.11500
H2682       H  0.64288253  0.72054465  0.77010495     0.08600
H2683       H  0.68472752  0.71799319  0.75425350     0.11800
H2684       H  0.70485237  0.78589188  0.79203624     0.13700
C2685       C  0.49152927  0.83334991  0.91934698    -0.01800
C2686       C  0.47364426  0.85112123  0.91198618    -0.09800
C2687       C  0.47256459  0.87480392  0.92298511    -0.18700
C2688       C  0.48987399  0.88203754  0.94152512     0.03700
C2689       C  0.50821607  0.86415910  0.94882123     0.17900
C2690       C  0.50861394  0.83998003  0.93807955    -0.20100
C2691       C  0.52646284  0.87075383  0.96635099    -0.21300
C2692       C  0.52712526  0.89470358  0.97654851    -0.19900
C2693       C  0.50924633  0.91261593  0.96992550     0.19300
C2694       C  0.49005119  0.90650283  0.95264296     0.01400
C2695       C  0.47202130  0.92521290  0.94726942    -0.14600
C2696       C  0.47341492  0.94905852  0.95819191    -0.12300
C2697       C  0.49274936  0.95501292  0.97472514     0.01000
C2698       C  0.51050946  0.93666130  0.98053336    -0.24500
H2699       H  0.46025787  0.84668552  0.89746458     0.09000
H2700       H  0.45832085  0.88724289  0.91613633     0.12500
H2701       H  0.52286491  0.82669638  0.94358514     0.11300
H2702       H  0.54058907  0.85738683  0.97195805     0.12500
H2703       H  0.54174013  0.89923545  0.98981028     0.11500
H2704       H  0.45657871  0.92194516  0.93479406     0.08600
H2705       H  0.45945796  0.96295954  0.95360086     0.11800
H2706       H  0.52539417  0.94120069  0.99351504     0.13700
C2707       C  0.21815282  0.79100848  0.76264780    -0.01800
C2708       C  0.19442770  0.79374363  0.77321703    -0.09800
C2709       C  0.18289351  0.81730818  0.77423811    -0.18700
C2710       C  0.19480988  0.83895103  0.76453416     0.03700
C2711       C  0.21910125  0.83596190  0.75428015     0.17900
C2712       C  0.23041786  0.81223981  0.75345954    -0.20100
C2713       C  0.23195027  0.85663303  0.74467417    -0.21300
C2714       C  0.22118820  0.88029389  0.74480271    -0.19900
C2715       C  0.19715656  0.88395552  0.75432418     0.19300
C2716       C  0.18357720  0.86336221  0.76436886     0.01400
C2717       C  0.15925028  0.86811823  0.77339272    -0.14600
C2718       C  0.14881833  0.89208679  0.77214682    -0.12300
C2719       C  0.16212058  0.91230656  0.76192282     0.01000
C2720       C  0.18646817  0.90805535  0.75333752    -0.24500
H2721       H  0.18471440  0.77754360  0.78050046     0.09000
H2722       H  0.16460818  0.81797856  0.78257711     0.12500
H2723       H  0.24880915  0.81013615  0.74526378     0.11300
H2724       H  0.25050063  0.85447082  0.73689896     0.12500
H2725       H  0.23166770  0.89582979  0.73710408     0.11500
H2726       H  0.14766697  0.85361288  0.78119391     0.08600
H2727       H  0.12993271  0.89464891  0.77886094     0.11800
H2728       H  0.19695257  0.92341301  0.74528164     0.13700
C2729       C  0.27319306  0.69959120  0.74405118    -0.01800
C2730       C  0.29092962  0.69534715  0.72529793    -0.09800
C2731       C  0.30186030  0.67162508  0.72229528    -0.18700
C2732       C  0.29509627  0.65122592  0.73788079     0.03700
C2733       C  0.27655100  0.65565205  0.75638285     0.17900
C2734       C  0.26605910  0.67960339  0.75938951    -0.20100
C2735       C  0.26856143  0.63615260  0.77189387    -0.21300
C2736       C  0.27890921  0.61238585  0.76987724    -0.19900
C2737       C  0.29780270  0.60745744  0.75250389     0.19300
C2738       C  0.30612656  0.62672884  0.73611193     0.01400
C2739       C  0.32559538  0.62072127  0.71927195    -0.14600
C2740       C  0.33703335  0.59710084  0.71959751    -0.12300
C2741       C  0.32920675  0.57836227  0.73624398     0.01000
C2742       C  0.30902346  0.58356184  0.75213575    -0.24500
H2743       H  0.29635382  0.71045400  0.71296420     0.09000
H2744       H  0.31544723  0.66975475  0.70756153     0.12500
H2745       H  0.25200201  0.68273810  0.77363797     0.11300
H2746       H  0.25427599  0.63935191  0.78587300     0.12500
H2747       H  0.27242070  0.59784629  0.78240612     0.11500
H2748       H  0.33293485  0.63417783  0.70618798     0.08600
H2749       H  0.35255330  0.59366581  0.70709180     0.11800
H2750       H  0.30291938  0.56941181  0.76530371     0.13700
C2751       C  0.29282037  0.73731032  0.77967412    -0.01800
C2752       C  0.31406598  0.74123976  0.76486581    -0.09800
C2753       C  0.33809028  0.74112659  0.77524806    -0.18700
C2754       C  0.34184294  0.73738550  0.80117070     0.03700
C2755       C  0.32027279  0.73318286  0.81616275     0.17900
C2756       C  0.29618651  0.73278849  0.80532435    -0.20100
C2757       C  0.32283330  0.72986668  0.84200153    -0.21300
C2758       C  0.34623763  0.73072554  0.85333614    -0.19900
C2759       C  0.36786194  0.73479313  0.83918332     0.19300
C2760       C  0.36606491  0.73806078  0.81285469     0.01400
C2761       C  0.38858740  0.74212569  0.79954594    -0.14600
C2762       C  0.41168432  0.74350679  0.81192339    -0.12300
C2763       C  0.41334926  0.74060975  0.83794192     0.01000
C2764       C  0.39124855  0.73592391  0.85133818    -0.24500
H2765       H  0.31200391  0.74501561  0.74507600     0.09000
H2766       H  0.35333820  0.74450769  0.76256393     0.12500
H2767       H  0.27994836  0.72961086  0.81698090     0.11300
H2768       H  0.30654590  0.72679742  0.85361193     0.12500
H2769       H  0.34741708  0.72826209  0.87341783     0.11500
H2770       H  0.38893419  0.74454071  0.77954603     0.08600
H2771       H  0.42835448  0.74700497  0.80103296     0.11800
H2772       H  0.39213040  0.73373979  0.87147726     0.13700
C2773       C  0.23037591  0.58391681  0.42298714    -0.01800
C2774       C  0.23236826  0.55798928  0.42067017    -0.09800
C2775       C  0.22715086  0.54647121  0.39779293    -0.18700
C2776       C  0.21983959  0.56082822  0.37674346     0.03700
C2777       C  0.21925363  0.58726118  0.37917904     0.17900
C2778       C  0.22461782  0.59839872  0.40200177    -0.20100
C2779       C  0.21221976  0.60253177  0.35917775    -0.21300
C2780       C  0.20335731  0.59199840  0.33732467    -0.19900
C2781       C  0.20178253  0.56605246  0.33505491     0.19300
C2782       C  0.21140853  0.55002469  0.35397159     0.01400
C2783       C  0.21036297  0.52391212  0.34990730    -0.14600
C2784       C  0.19735076  0.51425827  0.32948910    -0.12300
C2785       C  0.18532052  0.53041506  0.31289773     0.01000
C2786       C  0.18866023  0.55609253  0.31495246    -0.24500
H2787       H  0.23738840  0.54661793  0.43665929     0.09000
H2788       H  0.22827648  0.52636039  0.39737145     0.12500
H2789       H  0.22395203  0.61863444  0.40346845     0.11300
H2790       H  0.21230639  0.62273132  0.36093034     0.12500
H2791       H  0.19657549  0.60419226  0.32261505     0.11500
H2792       H  0.21829820  0.51056328  0.36273124     0.08600
H2793       H  0.19496969  0.49420582  0.32782187     0.11800
H2794       H  0.17924318  0.56846242  0.30209576     0.13700
C2795       C  0.33154992  0.51872491  0.67274604    -0.01800
C2796       C  0.30556534  0.51829661  0.67096708    -0.09800
C2797       C  0.29391925  0.52458276  0.64841685    -0.18700
C2798       C  0.30819003  0.53155393  0.62720045     0.03700
C2799       C  0.33460011  0.53068536  0.62909249     0.17900
C2800       C  0.34586091  0.52397011  0.65150581    -0.20100
C2801       C  0.34978023  0.53781829  0.60906565    -0.21300
C2802       C  0.33930072  0.54812453  0.58781200    -0.19900
C2803       C  0.31344652  0.55068599  0.58595634     0.19300
C2804       C  0.29740392  0.54100263  0.60480854     0.01400
C2805       C  0.27135001  0.54265478  0.60095586    -0.14600
C2806       C  0.26180828  0.55588454  0.58060649    -0.12300
C2807       C  0.27798691  0.56772775  0.56391305     0.01000
C2808       C  0.30361051  0.56435060  0.56610866    -0.24500
H2809       H  0.29428519  0.51382312  0.68716536     0.09000
H2810       H  0.27380914  0.52475908  0.64844208     0.12500
H2811       H  0.36608184  0.52353234  0.65256952     0.11300
H2812       H  0.36993891  0.53675349  0.61041836     0.12500
H2813       H  0.35150044  0.55493286  0.57313848     0.11500
H2814       H  0.25798015  0.53467674  0.61373057     0.08600
H2815       H  0.24181456  0.55834658  0.57889540     0.11800
H2816       H  0.31601901  0.57364102  0.55323181     0.13700
C2817       C  0.32170077  0.67803466  0.48377507    -0.01800
C2818       C  0.31883789  0.70101092  0.47186662    -0.09800
C2819       C  0.33986931  0.71431980  0.46398573    -0.18700
C2820       C  0.36425329  0.70460540  0.46767027     0.03700
C2821       C  0.36676491  0.68199711  0.48136796     0.17900
C2822       C  0.34556032  0.66910328  0.48935338    -0.20100
C2823       C  0.39029762  0.67150656  0.48565907    -0.21300
C2824       C  0.41144457  0.68201716  0.47499589    -0.19900
C2825       C  0.40947792  0.70332279  0.45998797     0.19300
C2826       C  0.38602317  0.71551396  0.45690780     0.01400
C2827       C  0.38515899  0.73720147  0.44185328    -0.14600
C2828       C  0.40614380  0.74507167  0.42870989    -0.12300
C2829       C  0.42856826  0.73197069  0.43058036     0.01000
C2830       C  0.43053961  0.71169353  0.44683882    -0.24500
H2831       H  0.30037240  0.70801357  0.46750261     0.09000
H2832       H  0.33636119  0.73153314  0.45420873     0.12500
H2833       H  0.34756331  0.65125120  0.49875443     0.23300
H2834       H  0.39222461  0.65441318  0.49638094     0.12500
H2835       H  0.42927470  0.67285942  0.47766886     0.11500
H2836       H  0.36840795  0.74789205  0.43904595     0.08600
H2837       H  0.40455744  0.76086234  0.41608701     0.11800
H2838       H  0.44802588  0.70164234  0.44815401     0.13700
C2839       C  0.33479870  0.58502615  0.50895592    -0.01800
C2840       C  0.35449195  0.59706117  0.52150391    -0.09800
C2841       C  0.37839698  0.58671902  0.52243863    -0.18700
C2842       C  0.38376543  0.56363530  0.51084392     0.03700
C2843       C  0.36374809  0.55104882  0.49858549     0.17900
C2844       C  0.33960442  0.56180003  0.49766361    -0.20100
C2845       C  0.36803187  0.52785621  0.48721245    -0.21300
C2846       C  0.39163393  0.51690545  0.48774677    -0.19900
C2847       C  0.41175255  0.52893886  0.49941963     0.19300
C2848       C  0.40821732  0.55259542  0.51099392     0.01400
C2849       C  0.42940988  0.56421869  0.52192397    -0.14600
C2850       C  0.45297654  0.55281536  0.52135454    -0.12300
C2851       C  0.45622329  0.52943821  0.51011678     0.01000
C2852       C  0.43549354  0.51756625  0.49930488    -0.24500
H2853       H  0.35152866  0.61488748  0.53063904     0.09000
H2854       H  0.39229783  0.59729638  0.53246030     0.12500
H2855       H  0.32465111  0.55217936  0.48797168     0.11300
H2856       H  0.35298675  0.51805756  0.47785606     0.12500
H2857       H  0.39420894  0.49891694  0.47879092     0.11500
H2858       H  0.42846606  0.58230114  0.53075357     0.08600
H2859       H  0.46883293  0.56239746  0.52949888     0.11800
H2860       H  0.43804944  0.49959830  0.49026005     0.13700
C2861       C  0.16851015  0.58176272  0.48655793    -0.01800
C2862       C  0.16620915  0.55767502  0.49670512    -0.09800
C2863       C  0.14299504  0.54548722  0.49771472    -0.18700
C2864       C  0.12097894  0.55698821  0.48856179     0.03700
C2865       C  0.12351613  0.58084723  0.47713826     0.17900
C2866       C  0.14698799  0.59294694  0.47632953    -0.20100
C2867       C  0.10249008  0.59273319  0.46701937    -0.21300
C2868       C  0.07896355  0.58159741  0.46819211    -0.19900
C2869       C  0.07560785  0.55844307  0.47996465     0.19300
C2870       C  0.09656381  0.54587528  0.49050920     0.01400
C2871       C  0.09202208  0.52303600  0.50305418    -0.14600
C2872       C  0.06788209  0.51319460  0.50503474    -0.12300
C2873       C  0.04737269  0.52527071  0.49419661     0.01000
C2874       C  0.05138942  0.54790452  0.48151302    -0.24500
H2875       H  0.18234103  0.54842507  0.50466066     0.09000
H2876       H  0.14283446  0.52713369  0.50600768     0.12500
H2877       H  0.14833188  0.61148666  0.46825282     0.11300
H2878       H  0.10423490  0.61087112  0.45816187     0.12500
H2879       H  0.06318423  0.59138578  0.46015618     0.11500
H2880       H  0.10671135  0.51253103  0.51192415     0.08600
H2881       H  0.06517674  0.49576007  0.51500081     0.11800
H2882       H  0.03567745  0.55736306  0.47299173     0.13700
C2883       C  0.23737519  0.66019531  0.58651271    -0.01800
C2884       C  0.22493363  0.64816196  0.60626952    -0.09800
C2885       C  0.22374784  0.65890553  0.63023628    -0.18700
C2886       C  0.23506937  0.68226635  0.63544057     0.03700
C2887       C  0.24710982  0.69471187  0.61522916     0.17900
C2888       C  0.24820742  0.68366549  0.59124871    -0.20100
C2889       C  0.25815204  0.71813271  0.61905592    -0.21300
C2890       C  0.25743273  0.72958617  0.64240755    -0.19900
C2891       C  0.24609770  0.71776071  0.66280444     0.19300
C2892       C  0.23496523  0.69378502  0.65981840     0.01400
C2893       C  0.22469508  0.68237656  0.68147562    -0.14600
C2894       C  0.22557442  0.69428475  0.70494169    -0.12300
C2895       C  0.23634631  0.71801526  0.70752977     0.01000
C2896       C  0.24634756  0.72965753  0.68631244    -0.24500
H2897       H  0.21628169  0.63009465  0.60329418     0.09000
H2898       H  0.21387685  0.64848284  0.64436350     0.12500
H2899       H  0.25791128  0.69328020  0.57628788     0.11300
H2900       H  0.26733975  0.72777251  0.60379433     0.12500
H2901       H  0.26609044  0.74777433  0.64459180     0.11500
H2902       H  0.21630786  0.66406639  0.68090567     0.08600
H2903       H  0.21809567  0.68481858  0.72119790     0.11800
H2904       H  0.25509263  0.74784260  0.68834525     0.13700
C2905       C  0.29213209  0.76574012  0.28038654    -0.01800
C2906       C  0.29573493  0.77830266  0.30300301    -0.09800
C2907       C  0.31939566  0.77903834  0.31419080    -0.18700
C2908       C  0.34021793  0.76698492  0.30304749     0.03700
C2909       C  0.33631963  0.75451640  0.27990070     0.17900
C2910       C  0.31251103  0.75410819  0.26884048    -0.20100
C2911       C  0.35611240  0.74216920  0.26808901    -0.21300
C2912       C  0.37970912  0.74149941  0.27895616    -0.19900
C2913       C  0.38421749  0.75321023  0.30192296     0.19300
C2914       C  0.36459766  0.76638717  0.31416349     0.01400
C2915       C  0.37018167  0.77801453  0.33719327    -0.14600
C2916       C  0.39382270  0.77590469  0.34798181    -0.12300
C2917       C  0.41304092  0.76241863  0.33624403     0.01000
C2918       C  0.40813434  0.75142913  0.31293319    -0.24500
H2919       H  0.28012913  0.78735243  0.31213481     0.09000
H2920       H  0.32071158  0.78891898  0.33170143     0.12500
H2921       H  0.30963329  0.74429987  0.25131651     0.11300
H2922       H  0.35325125  0.73268918  0.25040685     0.12500
H2923       H  0.39450206  0.73150495  0.26942131     0.11500
H2924       H  0.35658187  0.78864600  0.34753333     0.08600
H2925       H  0.39697174  0.78482685  0.36589263     0.11800
H2926       H  0.42275939  0.74100598  0.30358534     0.13700
C2927       C  0.27408084  0.80292171  0.24425784    -0.01800
C2928       C  0.29438151  0.80536154  0.22798687    -0.09800
C2929       C  0.30643404  0.82854577  0.22503049    -0.18700
C2930       C  0.29835798  0.85009267  0.23828129     0.03700
C2931       C  0.27770626  0.84725487  0.25474230     0.17900
C2932       C  0.26597802  0.82390094  0.25761456    -0.20100
C2933       C  0.26879613  0.86774649  0.26833001    -0.21300
C2934       C  0.27992875  0.89111695  0.26606291    -0.19900
C2935       C  0.30036356  0.89469777  0.25019249     0.19300
C2936       C  0.30993507  0.87428396  0.23602124     0.01400
C2937       C  0.33080700  0.87903647  0.22053120    -0.14600
C2938       C  0.34205645  0.90273578  0.21980634    -0.12300
C2939       C  0.33279812  0.92270811  0.23413745     0.01000
C2940       C  0.31159693  0.91853611  0.24892927    -0.24500
H2941       H  0.30091110  0.78928421  0.21756696     0.09000
H2942       H  0.32193307  0.82907676  0.21222360     0.12500
H2943       H  0.25026904  0.82197736  0.27025445     0.11300
H2944       H  0.25305687  0.86567969  0.28088551     0.12500
H2945       H  0.27256478  0.90651681  0.27697298     0.11500
H2946       H  0.33915467  0.86467842  0.20915408     0.08600
H2947       H  0.35848878  0.90529401  0.20830508     0.11800
H2948       H  0.30442403  0.93362694  0.26040601     0.13700
C2949       C  0.16737485  0.58824032  0.25789137    -0.01800
C2950       C  0.19255785  0.59124936  0.25160724    -0.09800
C2951       C  0.20391728  0.61492485  0.25267053    -0.18700
C2952       C  0.19028642  0.63654435  0.25983829     0.03700
C2953       C  0.16469909  0.63337155  0.26588141     0.17900
C2954       C  0.15368464  0.60952883  0.26504340    -0.20100
C2955       C  0.15009317  0.65403928  0.27259592    -0.21300
C2956       C  0.16031418  0.67795030  0.27340622    -0.19900
C2957       C  0.18548505  0.68186114  0.26771365     0.19300
C2958       C  0.20090505  0.66118873  0.26099574     0.01400
C2959       C  0.22621317  0.66617388  0.25555695    -0.14600
C2960       C  0.23556825  0.69055803  0.25610299    -0.12300
C2961       C  0.22029110  0.71087622  0.26230177     0.01000
C2962       C  0.19525934  0.70638775  0.26838004    -0.24500
H2963       H  0.20357219  0.57522670  0.24601070     0.09000
H2964       H  0.22335505  0.61572467  0.24762110     0.12500
H2965       H  0.13411061  0.60765388  0.26977561     0.11300
H2966       H  0.13052274  0.65171366  0.27713230     0.12500
H2967       H  0.14841149  0.69351472  0.27848976     0.11500
H2968       H  0.23920060  0.65165964  0.25052776     0.08600
H2969       H  0.25490126  0.69368838  0.25105900     0.11800
H2970       H  0.18332740  0.72203991  0.27312305     0.13700
C2971       C  0.26103747  0.67515012  0.42227143    -0.01800
C2972       C  0.24770951  0.69756190  0.41968394    -0.09800
C2973       C  0.24677233  0.71017947  0.39661554    -0.18700
C2974       C  0.25914324  0.70072227  0.37514015     0.03700
C2975       C  0.27359988  0.67867157  0.37817425     0.17900
C2976       C  0.27443241  0.66626745  0.40142678    -0.20100
C2977       C  0.28668066  0.66869101  0.35779977    -0.21300
C2978       C  0.28538442  0.67982081  0.33429094    -0.19900
C2979       C  0.27072808  0.70110773  0.33034211     0.19300
C2980       C  0.25741873  0.71195401  0.35072207     0.01400
C2981       C  0.24256340  0.73320002  0.34555797    -0.14600
C2982       C  0.24074359  0.74292353  0.32128883    -0.12300
C2983       C  0.25376933  0.73213254  0.30131084     0.01000
C2984       C  0.26904341  0.71139926  0.30603532    -0.24500
H2985       H  0.23722431  0.70496049  0.43532744     0.09000
H2986       H  0.23583808  0.72708287  0.39604478     0.12500
H2987       H  0.28500649  0.64906217  0.40302733     0.11300
H2988       H  0.29784876  0.65194402  0.36000146     0.12500
H2989       H  0.29561991  0.67144349  0.31896263     0.11500
H2990       H  0.23185150  0.74251245  0.35983923     0.08600
H2991       H  0.22902574  0.75910430  0.31804074     0.11800
H2992       H  0.27941815  0.70314717  0.29072611     0.13700
C2993       C  0.81749099  0.67454282  0.02861071    -0.01800
C2994       C  0.82641123  0.66779944  0.05227602    -0.09800
C2995       C  0.84956323  0.67576122  0.06030830    -0.18700
C2996       C  0.86410187  0.69159901  0.04523744     0.03700
C2997       C  0.85324337  0.70221159  0.02354148     0.17900
C2998       C  0.83014984  0.69299145  0.01480830    -0.20100
C2999       C  0.86594294  0.72134823  0.01082868    -0.21300
C3000       C  0.88879192  0.73035173  0.01990476    -0.19900
C3001       C  0.90036636  0.71882523  0.04044002     0.19300
C3002       C  0.88876066  0.69794582  0.05186105     0.01400
C3003       C  0.90224030  0.68396787  0.06951995    -0.14600
C3004       C  0.92450647  0.69294820  0.07887433    -0.12300
C3005       C  0.93372934  0.71620007  0.07117535     0.01000
C3006       C  0.92273627  0.72831121  0.05061780    -0.24500
H3007       H  0.81631440  0.65457477  0.06384666     0.09000
H3008       H  0.85573563  0.66933591  0.07843066     0.12500
H3009       H  0.82293780  0.69895149  0.99684462     0.11300
H3010       H  0.85779190  0.72992584  0.99440326     0.12500
H3011       H  0.89761052  0.74604312  0.01061932     0.11500
H3012       H  0.89560469  0.66628957  0.07674117     0.08600
H3013       H  0.93335199  0.68270700  0.09389029     0.11800
H3014       H  0.93033112  0.74588112  0.04393573     0.13700
C3015       C  0.01959553  0.67692202  0.17459496    -0.01800
C3016       C  0.03043066  0.68039657  0.19800499    -0.09800
C3017       C  0.03832552  0.65973040  0.21180377    -0.18700
C3018       C  0.03556175  0.63515228  0.20220344     0.03700
C3019       C  0.02263886  0.63200832  0.17921366     0.17900
C3020       C  0.01482987  0.65286064  0.16571083    -0.20100
C3021       C  0.01886835  0.60820485  0.16905922    -0.21300
C3022       C  0.02947433  0.58740083  0.18023564    -0.19900
C3023       C  0.04404808  0.59008034  0.20172572     0.19300
C3024       C  0.04652793  0.61381400  0.21361314     0.01400
C3025       C  0.06138849  0.61541063  0.23538700    -0.14600
C3026       C  0.07498130  0.59485581  0.24355324    -0.12300
C3027       C  0.07363745  0.57224555  0.23064639     0.01000
C3028       C  0.05749126  0.56948052  0.21049007    -0.24500
H3029       H  0.03382504  0.69908599  0.20506083     0.09000
H3030       H  0.04722503  0.66367942  0.22942115     0.12500
H3031       H  0.00589993  0.65044130  0.14763768     0.11300
H3032       H  0.00861225  0.60580356  0.15173387     0.12500
H3033       H  0.02726526  0.56930403  0.17136184     0.11500
H3034       H  0.06382292  0.63244658  0.24583320     0.08600
H3035       H  0.08743849  0.59689560  0.25938982     0.11800
H3036       H  0.05651951  0.55172269  0.20078858     0.13700
C3037       C  0.99033076  0.66672605  0.07998168    -0.01800
C3038       C  0.00460939  0.66270596  0.05835871    -0.09800
C3039       C  0.00474582  0.63929903  0.04634900    -0.18700
C3040       C  0.99040853  0.61897516  0.05556413     0.03700
C3041       C  0.97526478  0.62346761  0.07688737     0.17900
C3042       C  0.97548459  0.64695090  0.08884766    -0.20100
C3043       C  0.96028084  0.60432499  0.08659804    -0.21300
C3044       C  0.96038314  0.58057017  0.07598166    -0.19900
C3045       C  0.97563125  0.57513712  0.05548901     0.19300
C3046       C  0.99078798  0.59429924  0.04480183     0.01400
C3047       C  0.00600548  0.58767272  0.02423413    -0.14600
C3048       C  0.00652609  0.56310230  0.01514466    -0.12300
C3049       C  0.99181983  0.54432186  0.02595765     0.01000
C3050       C  0.97615719  0.55051768  0.04592936    -0.24500
H3051       H  0.01632873  0.67751523  0.05104411     0.09000
H3052       H  0.01643457  0.63758864  0.03010348     0.12500
H3053       H  0.96437476  0.64963464  0.10551412     0.11300
H3054       H  0.94857935  0.60768188  0.10271664     0.12500
H3055       H  0.94868625  0.56614635  0.08420506     0.11500
H3056       H  0.01801487  0.60098335  0.01503860     0.08600
H3057       H  0.01869548  0.55861580  0.99962497     0.11800
H3058       H  0.96472667  0.53599007  0.05433415     0.13700
C3059       C  0.91526636  0.76065530  0.16417595    -0.01800
C3060       C  0.89703063  0.77747955  0.15560574    -0.09800
C3061       C  0.87335777  0.77884124  0.16685975    -0.18700
C3062       C  0.86675849  0.76299894  0.18701430     0.03700
C3063       C  0.88542139  0.74625514  0.19594187     0.17900
C3064       C  0.90933689  0.74544215  0.18475874    -0.20100
C3065       C  0.87994286  0.72993270  0.21565529    -0.21300
C3066       C  0.85630615  0.72948448  0.22643843    -0.19900
C3067       C  0.83740004  0.74544266  0.21797115     0.19300
C3068       C  0.84231150  0.76271197  0.19834555     0.01400
C3069       C  0.82241585  0.77861699  0.19090891    -0.14600
C3070       C  0.79874028  0.77713809  0.20228851    -0.12300
C3071       C  0.79403896  0.75972063  0.22128487     0.01000
C3072       C  0.81353939  0.74404778  0.22901871    -0.24500
H3073       H  0.90097147  0.78950322  0.13979827     0.09000
H3074       H  0.86038702  0.79211115  0.15903637     0.12500
H3075       H  0.92305756  0.73217118  0.19151491     0.11300
H3076       H  0.89399585  0.71713131  0.22261442     0.12500
H3077       H  0.85273543  0.71637662  0.24147289     0.11500
H3078       H  0.82463542  0.79237187  0.17635360     0.08600
H3079       H  0.78400705  0.78956450  0.19617491     0.11800
H3080       H  0.81005521  0.73068250  0.24387038     0.13700
C3081       C  0.07800655  0.73868332  0.17234040    -0.01800
C3082       C  0.09630649  0.72092749  0.16627578    -0.09800
C3083       C  0.11996436  0.72146674  0.17742875    -0.18700
C3084       C  0.12649074  0.74024320  0.19487936     0.03700
C3085       C  0.10769990  0.75787173  0.20152469     0.17900
C3086       C  0.08368696  0.75671645  0.19057807    -0.20100
C3087       C  0.11326102  0.77710948  0.21840459    -0.21300
C3088       C  0.13711212  0.77953223  0.22849182    -0.19900
C3089       C  0.15607800  0.76264735  0.22220583     0.19300
C3090       C  0.15104900  0.74254747  0.20553119     0.01400
C3091       C  0.17092565  0.72586160  0.20014150    -0.14600
C3092       C  0.19466058  0.72908680  0.21079743    -0.12300
C3093       C  0.19943066  0.74897174  0.22712358     0.01000
C3094       C  0.18006043  0.76573629  0.23261154    -0.24500
H3095       H  0.09250041  0.70680743  0.15225454     0.09000
H3096       H  0.13298536  0.70733510  0.17145323     0.12500
H3097       H  0.06988929  0.77079367  0.19520034     0.11300
H3098       H  0.09913666  0.79064850  0.22357283     0.12500
H3099       H  0.14077265  0.79481940  0.24128089     0.11500
H3100       H  0.16867144  0.71005397  0.18785561     0.08600
H3101       H  0.20935031  0.71588350  0.20642278     0.11800
H3102       H  0.18365089  0.78106667  0.24538382     0.13700
C3103       C  0.18442150  0.82686469  0.03559484    -0.01800
C3104       C  0.17610083  0.80442857  0.02507423    -0.09800
C3105       C  0.15393921  0.79348882  0.03351809    -0.18700
C3106       C  0.13932919  0.80534857  0.05214707     0.03700
C3107       C  0.14906356  0.82723640  0.06364821     0.17900
C3108       C  0.17185220  0.83695808  0.05609987    -0.20100
C3109       C  0.13541881  0.84033370  0.08160567    -0.21300
C3110       C  0.11187980  0.83234498  0.08831087    -0.19900
C3111       C  0.10188884  0.81067439  0.07775733     0.19300
C3112       C  0.11532971  0.79670661  0.05958535     0.01400
C3113       C  0.10419582  0.77465178  0.05003288    -0.14600
C3114       C  0.08164446  0.76585031  0.05978607    -0.12300
C3115       C  0.06960153  0.77912751  0.07877385     0.01000
C3116       C  0.07899528  0.80220610  0.08645212    -0.24500
H3117       H  0.18576757  0.79625374  0.00928717     0.09000
H3118       H  0.14807195  0.77659887  0.02420989     0.12500
H3119       H  0.17868039  0.85399189  0.06478460     0.11300
H3120       H  0.14280587  0.85716095  0.09017237     0.12500
H3121       H  0.10162591  0.84290401  0.10223240     0.11500
H3122       H  0.11300491  0.76322940  0.03597206     0.08600
H3123       H  0.07450818  0.74791636  0.05364477     0.11800
H3124       H  0.06936460  0.81271089  0.10089054     0.13700
C3125       C  0.32598899  0.82931329  0.98242194    -0.01800
C3126       C  0.32644373  0.80334929  0.98029588    -0.09800
C3127       C  0.34866421  0.79125999  0.97389057    -0.18700
C3128       C  0.37083546  0.80510564  0.96947849     0.03700
C3129       C  0.37036157  0.83129260  0.97377025     0.17900
C3130       C  0.34813954  0.84298280  0.98021733    -0.20100
C3131       C  0.39169892  0.84596551  0.97035363    -0.21300
C3132       C  0.41322096  0.83546423  0.96070142    -0.19900
C3133       C  0.41369029  0.81014933  0.95430190     0.19300
C3134       C  0.39294499  0.79432909  0.95951092     0.01400
C3135       C  0.39467598  0.76881712  0.95280320    -0.14600
C3136       C  0.41511336  0.76007715  0.93932874    -0.12300
C3137       C  0.43428197  0.77639905  0.93263162     0.01000
C3138       C  0.43412105  0.80095999  0.94105992    -0.24500
H3139       H  0.30947196  0.79257239  0.98254202     0.09000
H3140       H  0.34769786  0.77124199  0.97179268     0.12500
H3141       H  0.34790601  0.86311532  0.98270490     0.11300
H3142       H  0.39139937  0.86588638  0.97414427     0.12500
H3143       H  0.42915238  0.84743061  0.95710939     0.11500
H3144       H  0.38008175  0.75547846  0.95657741     0.08600
H3145       H  0.41523773  0.74088625  0.93279966     0.11800
H3146       H  0.44915332  0.81330257  0.93598148     0.13700
C3147       C  0.27868257  0.93351247  0.06361618    -0.01800
C3148       C  0.26319731  0.94682442  0.07987008    -0.09800
C3149       C  0.27346806  0.95968063  0.10019123    -0.18700
C3150       C  0.29955831  0.95954561  0.10437574     0.03700
C3151       C  0.31501161  0.94797678  0.08612194     0.17900
C3152       C  0.30443568  0.93473968  0.06643311    -0.20100
C3153       C  0.34094973  0.94828829  0.08833957    -0.21300
C3154       C  0.35200950  0.95858810  0.10925716    -0.19900
C3155       C  0.33728920  0.96811483  0.12859431     0.19300
C3156       C  0.31089766  0.96922450  0.12644332     0.01400
C3157       C  0.29714391  0.97868096  0.14702718    -0.14600
C3158       C  0.30920997  0.98575033  0.16917415    -0.12300
C3159       C  0.33512597  0.98360505  0.17119069     0.01000
C3160       C  0.34897405  0.97555099  0.15054858    -0.24500
H3161       H  0.24310231  0.94578802  0.07790855     0.09000
H3162       H  0.26059489  0.96884619  0.11265894     0.12500
H3163       H  0.31629499  0.92389547  0.05427909     0.11300
H3164       H  0.35271122  0.93990038  0.07414085     0.12500
H3165       H  0.37217598  0.95805246  0.11082856     0.11500
H3166       H  0.27708631  0.98009339  0.14682401     0.08600
H3167       H  0.29826032  0.99229931  0.18487957     0.11800
H3168       H  0.36916539  0.97450607  0.15168877     0.13700
C3169       C  0.22130218  0.91793502  0.92679290    -0.01800
C3170       C  0.23321340  0.93902019  0.91695072    -0.09800
C3171       C  0.22572333  0.94873593  0.89385408    -0.18700
C3172       C  0.20638697  0.93716336  0.87994980     0.03700
C3173       C  0.19432018  0.91601446  0.89054313     0.17900
C3174       C  0.20129954  0.90725351  0.91390516    -0.20100
C3175       C  0.17558594  0.90323705  0.87766240    -0.21300
C3176       C  0.16785046  0.91148369  0.85451498    -0.19900
C3177       C  0.17834397  0.93296482  0.84411729     0.19300
C3178       C  0.19809243  0.94594788  0.85625817     0.01400
C3179       C  0.20773436  0.96768245  0.84459427    -0.14600
C3180       C  0.19622471  0.97753876  0.82331263    -0.12300
C3181       C  0.17536625  0.96560136  0.81313724     0.01000
C3182       C  0.16775878  0.94252438  0.82249175    -0.24500
H3183       H  0.24891071  0.94738384  0.92659305     0.09000
H3184       H  0.23576667  0.96483971  0.88711395     0.12500
H3185       H  0.19175515  0.89107141  0.92156955     0.11300
H3186       H  0.16670588  0.88685386  0.88564251     0.12500
H3187       H  0.15290726  0.90153818  0.84511378     0.11500
H3188       H  0.22311062  0.97818818  0.85224377     0.08600
H3189       H  0.20245609  0.99536234  0.81599042     0.11800
H3190       H  0.15186857  0.93304793  0.81420630     0.13700
C3191       C  0.26195460  0.82710278  0.92189817    -0.01800
C3192       C  0.28049747  0.83259198  0.90421670    -0.09800
C3193       C  0.28042679  0.82147195  0.88048772    -0.18700
C3194       C  0.26130601  0.80472693  0.87323990     0.03700
C3195       C  0.24280993  0.79871612  0.89141353     0.17900
C3196       C  0.24350783  0.80956531  0.91553114    -0.20100
C3197       C  0.22319932  0.78258582  0.88512011    -0.21300
C3198       C  0.22130692  0.77256960  0.86115355    -0.19900
C3199       C  0.23907988  0.77820185  0.84279868     0.19300
C3200       C  0.25950087  0.79418623  0.84853960     0.01400
C3201       C  0.27697281  0.79904754  0.82918584    -0.14600
C3202       C  0.27422045  0.78847666  0.80528724    -0.12300
C3203       C  0.25411794  0.77264184  0.79988413     0.01000
C3204       C  0.23654829  0.76779629  0.81872362    -0.24500
H3205       H  0.29490400  0.84613961  0.90857518     0.09000
H3206       H  0.29519495  0.82692851  0.86797103     0.12500
H3207       H  0.22880372  0.80548564  0.92882820     0.11300
H3208       H  0.20899069  0.77792987  0.89875840     0.12500
H3209       H  0.20574356  0.76033736  0.85692297     0.11500
H3210       H  0.29301447  0.81086195  0.83197822     0.08600
H3211       H  0.28799839  0.79245270  0.79101440     0.11800
H3212       H  0.22099403  0.75547081  0.81465256     0.13700
C3213       C  0.23935528  0.84000263  0.08609274    -0.01800
C3214       C  0.22998451  0.85382847  0.10636611    -0.09800
C3215       C  0.22830291  0.84347601  0.13033610    -0.18700
C3216       C  0.23587914  0.81862416  0.13507870     0.03700
C3217       C  0.24449495  0.80426993  0.11436035     0.17900
C3218       C  0.24625178  0.81501410  0.09025425    -0.20100
C3219       C  0.25164626  0.77934665  0.11790634    -0.21300
C3220       C  0.25083522  0.76847313  0.14155411    -0.19900
C3221       C  0.24312332  0.78227203  0.16242800     0.19300
C3222       C  0.23546988  0.80756165  0.15958290     0.01400
C3223       C  0.22825866  0.82069992  0.18148883    -0.14600
C3224       C  0.22905363  0.80929791  0.20512272    -0.12300
C3225       C  0.23687095  0.78447247  0.20772751     0.01000
C3226       C  0.24353950  0.77101539  0.18623823    -0.24500
H3227       H  0.22432636  0.87310833  0.10386431     0.09000
H3228       H  0.22111904  0.85548063  0.14482253     0.12500
H3229       H  0.25335492  0.80399357  0.07480983     0.11300
H3230       H  0.25808598  0.76818921  0.10227319     0.12500
H3231       H  0.25666405  0.74917884  0.14359027     0.11500
H3232       H  0.22232418  0.83993615  0.18102109     0.08600
H3233       H  0.22380524  0.81999327  0.22148816     0.11800
H3234       H  0.24976474  0.75182092  0.18822231     0.13700
C3235       C  0.33303987  0.92052227  0.00789497    -0.01800
C3236       C  0.33553100  0.94530131  0.99974825    -0.09800
C3237       C  0.35876145  0.95756660  0.00081043    -0.18700
C3238       C  0.38046931  0.94524847  0.00980072     0.03700
C3239       C  0.37775009  0.92019167  0.01810474     0.17900
C3240       C  0.35433762  0.90835351  0.01737621    -0.20100
C3241       C  0.39852597  0.90677049  0.02663371    -0.21300
C3242       C  0.42220022  0.91744133  0.02650824    -0.19900
C3243       C  0.42573931  0.94199417  0.01825311     0.19300
C3244       C  0.40485017  0.95649605  0.01031016     0.01400
C3245       C  0.40941452  0.98147968  0.00299249    -0.14600
C3246       C  0.43365942  0.99122349  0.00264327    -0.12300
C3247       C  0.45422781  0.97652808  0.00940347     0.01000
C3248       C  0.45011942  0.95200859  0.01758057    -0.24500
H3249       H  0.31950886  0.95521766  0.99240816     0.09000
H3250       H  0.35926557  0.97652506  0.99401472     0.12500
H3251       H  0.35289509  0.88918115  0.02379338     0.11300
H3252       H  0.39653322  0.88763100  0.03298899     0.12500
H3253       H  0.43790635  0.90631430  0.03275840     0.11500
H3254       H  0.39463330  0.99389332  0.99730391     0.08600
H3255       H  0.43648031  0.01032083  0.99648852     0.11800
H3256       H  0.46595076  0.94067377  0.02311954     0.13700
C3257       C  0.01902969  0.81623353  0.68010819    -0.01800
C3258       C  0.00310230  0.83612233  0.68568254    -0.09800
C3259       C  0.01195308  0.85676886  0.69895543    -0.18700
C3260       C  0.03712158  0.85788259  0.70682782     0.03700
C3261       C  0.05241090  0.83648537  0.70274977     0.17900
C3262       C  0.04325509  0.81608287  0.68935547    -0.20100
C3263       C  0.07723616  0.83611755  0.71065646    -0.21300
C3264       C  0.08788022  0.85732568  0.72089938    -0.19900
C3265       C  0.07395790  0.87932109  0.72308161     0.19300
C3266       C  0.04817935  0.87986659  0.71701380     0.01400
C3267       C  0.03520780  0.90284720  0.71987297    -0.14600
C3268       C  0.04797300  0.92481452  0.72627181    -0.12300
C3269       C  0.07372050  0.92414218  0.73008476     0.01000
C3270       C  0.08621496  0.90119060  0.72981429    -0.24500
H3271       H  0.98419796  0.83632980  0.67847922     0.09000
H3272       H  0.99899199  0.87189764  0.70190322     0.12500
H3273       H  0.05540965  0.80064240  0.68502206     0.11300
H3274       H  0.08876278  0.81967583  0.70795342     0.12500
H3275       H  0.10747077  0.85689319  0.72595823     0.11500
H3276       H  0.01549589  0.90463393  0.71627177     0.08600
H3277       H  0.03799769  0.94240347  0.72706960     0.11800
H3278       H  0.10607716  0.90051039  0.73373733     0.13700
C3279       C  0.95974230  0.68606263  0.67608613    -0.01800
C3280       C  0.97065803  0.67776509  0.69831805    -0.09800
C3281       C  0.96141192  0.65648122  0.71023829    -0.18700
C3282       C  0.94144369  0.64278676  0.69961744     0.03700
C3283       C  0.92902881  0.65312097  0.67850135     0.17900
C3284       C  0.93774262  0.67500783  0.66758100    -0.20100
C3285       C  0.90926654  0.64057729  0.66702362    -0.21300
C3286       C  0.90243242  0.61705619  0.67513226    -0.19900
C3287       C  0.91482654  0.60596910  0.69525083     0.19300
C3288       C  0.93406501  0.61876186  0.70829492     0.01400
C3289       C  0.94531772  0.60662530  0.72899446    -0.14600
C3290       C  0.93691113  0.58318839  0.73696175    -0.12300
C3291       C  0.91754330  0.57125570  0.72418557     0.01000
C3292       C  0.90748613  0.58225732  0.70273971    -0.24500
H3293       H  0.98746851  0.68650653  0.70541850     0.09000
H3294       H  0.97123604  0.65037551  0.72672211     0.12500
H3295       H  0.92880840  0.68199319  0.65076652     0.11300
H3296       H  0.89972686  0.64855145  0.65102450     0.12500
H3297       H  0.88746473  0.60739323  0.66549228     0.11500
H3298       H  0.96005114  0.61504804  0.73981265     0.08600
H3299       H  0.94468387  0.57501373  0.75377641     0.11800
H3300       H  0.89262853  0.57288905  0.69259373     0.13700
C3301       C  0.06496263  0.71669704  0.57915499    -0.01800
C3302       C  0.07587303  0.72928578  0.55902965    -0.09800
C3303       C  0.09764368  0.72000460  0.54806010    -0.18700
C3304       C  0.10917618  0.69811161  0.55743574     0.03700
C3305       C  0.09664064  0.68456836  0.57656665     0.17900
C3306       C  0.07447690  0.69357886  0.58662886    -0.20100
C3307       C  0.10699627  0.66290949  0.58677547    -0.21300
C3308       C  0.13025192  0.65485462  0.57915132    -0.19900
C3309       C  0.14330726  0.66796321  0.56074198     0.19300
C3310       C  0.13293682  0.68950299  0.54919522     0.01400
C3311       C  0.14695497  0.70142633  0.53013996    -0.14600
C3312       C  0.16969739  0.69144655  0.52207177    -0.12300
C3313       C  0.17914068  0.66976250  0.53316717     0.01000
C3314       C  0.16643839  0.65896844  0.55327430    -0.24500
H3315       H  0.06854082  0.74711725  0.55284344     0.09000
H3316       H  0.10563796  0.73100226  0.53319481     0.12500
H3317       H  0.06564391  0.68346497  0.60183711     0.11300
H3318       H  0.09738137  0.65255446  0.60129872     0.12500
H3319       H  0.13806576  0.63822286  0.58768481     0.11500
H3320       H  0.14044991  0.71791081  0.52055975     0.08600
H3321       H  0.17922416  0.69995621  0.50636996     0.11800
H3322       H  0.17387483  0.64234361  0.56221848     0.13700
C3323       C  0.93312729  0.77572580  0.56691319    -0.01800
C3324       C  0.91412893  0.75954823  0.55923467    -0.09800
C3325       C  0.89353375  0.76874491  0.54618020    -0.18700
C3326       C  0.89157979  0.79450880  0.54059580     0.03700
C3327       C  0.91231128  0.81017017  0.54635917     0.17900
C3328       C  0.93263029  0.80071229  0.55970574    -0.20100
C3329       C  0.91204787  0.83551765  0.54012094    -0.21300
C3330       C  0.89086810  0.84614637  0.52983107    -0.19900
C3331       C  0.86937464  0.83175258  0.52622406     0.19300
C3332       C  0.86942698  0.80561593  0.53089499     0.01400
C3333       C  0.84684202  0.79221732  0.52719165    -0.14600
C3334       C  0.82480719  0.80468394  0.52064558    -0.12300
C3335       C  0.82492523  0.83060085  0.51759784     0.01000
C3336       C  0.84740426  0.84376695  0.51933879    -0.24500
H3337       H  0.91442797  0.74006527  0.56479649     0.09000
H3338       H  0.87912000  0.75548642  0.54151837     0.12500
H3339       H  0.94743236  0.81310790  0.56566226     0.11300
H3340       H  0.92801214  0.84737131  0.54402979     0.12500
H3341       H  0.89087042  0.86603933  0.52591692     0.11500
H3342       H  0.84540321  0.77234802  0.53018568     0.08600
H3343       H  0.80755451  0.79426134  0.51895737     0.11800
H3344       H  0.84760882  0.86382829  0.51623747     0.13700
C3345       C  0.19812099  0.75256877  0.72841442    -0.01800
C3346       C  0.17880751  0.73823227  0.73868524    -0.09800
C3347       C  0.15437922  0.73992314  0.72955352    -0.18700
C3348       C  0.14836476  0.75599011  0.70943438     0.03700
C3349       C  0.16800131  0.77085374  0.69927474     0.17900
C3350       C  0.19254588  0.76916695  0.70891124    -0.20100
C3351       C  0.16307647  0.78698016  0.67925956    -0.21300
C3352       C  0.13946216  0.78787589  0.66838029    -0.19900
C3353       C  0.11997400  0.77288738  0.67737190     0.19300
C3354       C  0.12385227  0.75728519  0.69851173     0.01400
C3355       C  0.10314432  0.74326578  0.70729934    -0.14600
C3356       C  0.08009398  0.74365625  0.69475728    -0.12300
C3357       C  0.07683917  0.75790648  0.67301014     0.01000
C3358       C  0.09681217  0.77293100  0.66485574    -0.24500
H3359       H  0.18270918  0.72559143  0.75402857     0.09000
H3360       H  0.14067552  0.72809895  0.73837269     0.12500
H3361       H  0.20737037  0.78055069  0.70111981     0.11300
H3362       H  0.17777699  0.79855562  0.67153458     0.12500
H3363       H  0.13654334  0.80008669  0.65248301     0.11500
H3364       H  0.10430551  0.73148506  0.72360625     0.08600
H3365       H  0.06502007  0.73206185  0.70164842     0.11800
H3366       H  0.09447886  0.78443643  0.64832787     0.13700
C3367       C  0.00871789  0.54553400  0.52823975    -0.01800
C3368       C  0.00128533  0.56632778  0.51420530    -0.09800
C3369       C  0.00234511  0.59044503  0.52419476    -0.18700
C3370       C  0.01058565  0.59460007  0.54896882     0.03700
C3371       C  0.01804231  0.57335565  0.56321783     0.17900
C3372       C  0.01720975  0.54914648  0.55273507    -0.20100
C3373       C  0.02592868  0.57637949  0.58797554    -0.21300
C3374       C  0.02610740  0.59991476  0.59910071    -0.19900
C3375       C  0.01852546  0.62112908  0.58575031     0.19300
C3376       C  0.01107169  0.61890704  0.56034376     0.01400
C3377       C  0.00400043  0.64107466  0.54767199    -0.14600
C3378       C  0.00309774  0.66413744  0.56009199    -0.12300
C3379       C  0.00936350  0.66603604  0.58546711     0.01000
C3380       C  0.01772011  0.64446969  0.59793432    -0.24500
H3381       H  0.99435118  0.56381280  0.49534044     0.09000
H3382       H  0.99616858  0.60538306  0.51219054     0.12500
H3383       H  0.02288400  0.53307039  0.56368949     0.11300
H3384       H  0.03166525  0.56034942  0.59896120     0.12500
H3385       H  0.03193372  0.60148664  0.61844751     0.11500
H3386       H  0.99866441  0.64115826  0.52825290     0.08600
H3387       H  0.99685564  0.68046290  0.54988352     0.11800
H3388       H  0.02288976  0.64564464  0.61750112     0.13700
C3389       C  0.90991139  0.73841315  0.65992062    -0.01800
C3390       C  0.88993902  0.72746021  0.64689507    -0.09800
C3391       C  0.86619479  0.72552808  0.65767466    -0.18700
C3392       C  0.86146145  0.73458651  0.68205899     0.03700
C3393       C  0.88193681  0.74497616  0.69551272     0.17900
C3394       C  0.90575638  0.74677584  0.68443447    -0.20100
C3395       C  0.87846916  0.75385524  0.71987655    -0.21300
C3396       C  0.85510846  0.75289945  0.73114556    -0.19900
C3397       C  0.83447659  0.74326246  0.71829520     0.19300
C3398       C  0.83722183  0.73396668  0.69353454     0.01400
C3399       C  0.81547112  0.72497154  0.68131573    -0.14600
C3400       C  0.79207344  0.72554718  0.69311715    -0.12300
C3401       C  0.78966764  0.73479702  0.71746557     0.01000
C3402       C  0.81098200  0.74334933  0.72998647    -0.24500
H3403       H  0.89254565  0.72063102  0.62801262     0.09000
H3404       H  0.85186308  0.71699942  0.64638143     0.12500
H3405       H  0.92100288  0.75515034  0.69481862     0.11300
H3406       H  0.89394911  0.76172176  0.73029274     0.12500
H3407       H  0.85310637  0.76004155  0.75000186     0.11500
H3408       H  0.81588265  0.71780725  0.66248282     0.08600
H3409       H  0.77572917  0.71906892  0.68310455     0.11800
H3410       H  0.80905987  0.75079042  0.74875683     0.13700
C3411       C  0.95374913  0.97314455  0.49163131    -0.01800
C3412       C  0.94699413  0.95813244  0.47128787    -0.09800
C3413       C  0.92286309  0.94802388  0.46954764    -0.18700
C3414       C  0.90467158  0.95262368  0.48828146     0.03700
C3415       C  0.91186242  0.96769272  0.50896922     0.17900
C3416       C  0.93609584  0.97769722  0.51041384    -0.20100
C3417       C  0.89480137  0.97284675  0.52810213    -0.21300
C3418       C  0.87063133  0.96340596  0.52721598    -0.19900
C3419       C  0.86284380  0.94843426  0.50722621     0.19300
C3420       C  0.87972433  0.94279265  0.48742868     0.01400
C3421       C  0.87093678  0.92726988  0.46791016    -0.14600
C3422       C  0.84691699  0.91700747  0.46860958    -0.12300
C3423       C  0.83052932  0.92222398  0.48839024     0.01000
C3424       C  0.83845288  0.93848272  0.50733713    -0.24500
H3425       H  0.96039490  0.95437255  0.45660966     0.09000
H3426       H  0.91897663  0.93677506  0.45329408     0.12500
H3427       H  0.94125165  0.98942035  0.52614282     0.11300
H3428       H  0.90020051  0.98430632  0.54392392     0.12500
H3429       H  0.85797298  0.96771008  0.54241333     0.11500
H3430       H  0.88238486  0.92222813  0.45214637     0.08600
H3431       H  0.84124898  0.90447511  0.45373955     0.11800
H3432       H  0.82609748  0.94231420  0.52292146     0.13700
C3433       C  0.16828986  0.08206828  0.51079722    -0.01800
C3434       C  0.16643708  0.05738796  0.50213671    -0.09800
C3435       C  0.14338365  0.04492856  0.50167743    -0.18700
C3436       C  0.12116133  0.05693062  0.50960150     0.03700
C3437       C  0.12323146  0.08178731  0.51877664     0.17900
C3438       C  0.14656322  0.09386356  0.51959306    -0.20100
C3439       C  0.10191616  0.09472681  0.52663881    -0.21300
C3440       C  0.07847596  0.08360415  0.52551885    -0.19900
C3441       C  0.07566262  0.05919346  0.51656705     0.19300
C3442       C  0.09696095  0.04541720  0.50851103     0.01400
C3443       C  0.09298671  0.02085753  0.49951177    -0.14600
C3444       C  0.06898936  0.01060923  0.49843236    -0.12300
C3445       C  0.04815120  0.02429900  0.50630437     0.01000
C3446       C  0.05160150  0.04856175  0.51545322    -0.24500
H3447       H  0.18282616  0.04776949  0.49523728     0.09000
H3448       H  0.14349908  0.02606997  0.49460848     0.12500
H3449       H  0.14760225  0.11292786  0.52640370     0.11300
H3450       H  0.10335707  0.11373026  0.53355135     0.12500
H3451       H  0.06238335  0.09424320  0.53163078     0.11500
H3452       H  0.10800227  0.00915900  0.49304347     0.08600
H3453       H  0.06660297  0.99186255  0.49113007     0.11800
H3454       H  0.03548026  0.05920788  0.52150446     0.13700
C3455       C  0.02847342  0.98901276  0.54385172    -0.01800
C3456       C  0.04949208  0.97392429  0.54732138    -0.09800
C3457       C  0.06012529  0.97123878  0.57117232    -0.18700
C3458       C  0.04984782  0.98359133  0.59230948     0.03700
C3459       C  0.02833004  0.99863324  0.58845254     0.17900
C3460       C  0.01793829  0.00111240  0.56448441    -0.20100
C3461       C  0.01739163  0.01139881  0.60848365    -0.21300
C3462       C  0.02771865  0.01017297  0.63229574    -0.19900
C3463       C  0.04917398  0.99598661  0.63679472     0.19300
C3464       C  0.06028992  0.98206659  0.61699180     0.01400
C3465       C  0.08161099  0.96765361  0.62274490    -0.14600
C3466       C  0.09222293  0.96823686  0.64663814    -0.12300
C3467       C  0.08201439  0.98303654  0.66578482     0.01000
C3468       C  0.05998761  0.99627984  0.66085587    -0.24500
H3469       H  0.05766695  0.96421589  0.53156446     0.09000
H3470       H  0.07641705  0.95952771  0.57245673     0.12500
H3471       H  0.00150766  0.01264643  0.56174520     0.11300
H3472       H  0.00090104  0.02278057  0.60563109     0.12500
H3473       H  0.01902572  0.02069637  0.64725910     0.11500
H3474       H  0.09081715  0.95613475  0.60904631     0.08600
H3475       H  0.10907936  0.95754809  0.64988464     0.11800
H3476       H  0.05182144  0.00772590  0.67544498     0.13700
C3477       C  0.00955851  0.04587283  0.47259028    -0.01800
C3478       C  0.02857531  0.05112130  0.45540861    -0.09800
C3479       C  0.03075676  0.07502340  0.44463785    -0.18700
C3480       C  0.01390314  0.09454689  0.45083677     0.03700
C3481       C  0.99508562  0.08912017  0.46878399     0.17900
C3482       C  0.99303701  0.06504676  0.47925227    -0.20100
C3483       C  0.97817036  0.10768194  0.47605000    -0.21300
C3484       C  0.97899995  0.13140772  0.46542485    -0.19900
C3485       C  0.99665313  0.13725992  0.44706452     0.19300
C3486       C  0.01458546  0.11904357  0.43965360     0.01400
C3487       C  0.03184419  0.12602118  0.42088883    -0.14600
C3488       C  0.03048394  0.14948087  0.40919203    -0.12300
C3489       C  0.01225301  0.16709581  0.41599591     0.01000
C3490       C  0.99586951  0.16100665  0.43551676    -0.24500
H3491       H  0.04166095  0.03661528  0.45018099     0.09000
H3492       H  0.04572632  0.07765862  0.43145041     0.12500
H3493       H  0.97846092  0.06112189  0.49276191     0.11300
H3494       H  0.96393021  0.10372233  0.48988205     0.12500
H3495       H  0.96534663  0.14516350  0.47127296     0.11500
H3496       H  0.04616948  0.11347857  0.41437812     0.08600
H3497       H  0.04356901  0.15369167  0.39434918     0.11800
H3498       H  0.98164478  0.17435440  0.44096321     0.13700
C3499       C  0.99117704  0.83233409  0.58320184    -0.01800
C3500       C  0.00370798  0.83504169  0.56038660    -0.09800
C3501       C  0.00424845  0.85813682  0.54799858    -0.18700
C3502       C  0.99215804  0.87946388  0.55805972     0.03700
C3503       C  0.97905811  0.87647578  0.58095379     0.17900
C3504       C  0.97871225  0.85318941  0.59320062    -0.20100
C3505       C  0.96651649  0.89680880  0.59165806    -0.21300
C3506       C  0.96677061  0.92017815  0.58020121    -0.19900
C3507       C  0.97967558  0.92392422  0.55777389     0.19300
C3508       C  0.99260597  0.90361881  0.54636346     0.01400
C3509       C  0.00560299  0.90850022  0.52388107    -0.14600
C3510       C  0.00568301  0.93236854  0.51324219    -0.12300
C3511       C  0.99292193  0.95221600  0.52448951     0.01000
C3512       C  0.97996481  0.94794174  0.54681412    -0.24500
H3513       H  0.01346740  0.81931571  0.55220669     0.09000
H3514       H  0.01437345  0.85870277  0.53060560     0.12500
H3515       H  0.96883351  0.85140451  0.61079745     0.11300
H3516       H  0.95645737  0.89464064  0.60909457     0.12500
H3517       H  0.95690153  0.93549075  0.58904350     0.11500
H3518       H  0.01605463  0.89432129  0.51414422     0.08600
H3519       H  0.01610364  0.93549508  0.49616195     0.11800
H3520       H  0.97043977  0.96340033  0.55579568     0.13700
C3521       C  0.92381221  0.07532398  0.26759927    -0.01800
C3522       C  0.94971491  0.07480367  0.27030399    -0.09800
C3523       C  0.96262175  0.09666993  0.27663737    -0.18700
C3524       C  0.94970033  0.11951232  0.28037284     0.03700
C3525       C  0.92360464  0.11995127  0.27568110     0.17900
C3526       C  0.91110569  0.09807738  0.26924466    -0.20100
C3527       C  0.90975249  0.14187210  0.27879107    -0.21300
C3528       C  0.92083679  0.16298153  0.28878258    -0.19900
C3529       C  0.94601906  0.16258614  0.29549834     0.19300
C3530       C  0.96120861  0.14142880  0.29020376     0.01400
C3531       C  0.98679919  0.14267136  0.29665592    -0.14600
C3532       C  0.99609918  0.16295941  0.31024300    -0.12300
C3533       C  0.98018966  0.18234668  0.31742780     0.01000
C3534       C  0.95565397  0.18261224  0.30908287    -0.24500
H3535       H  0.95981044  0.05735327  0.26847772     0.09000
H3536       H  0.98247229  0.09493078  0.27934217     0.12500
H3537       H  0.89107693  0.09862293  0.26626348     0.11300
H3538       H  0.88993286  0.14229702  0.27470359     0.12500
H3539       H  0.90939562  0.17931707  0.29232164     0.11500
H3540       H  0.99974944  0.12784131  0.29245943     0.08600
H3541       H  0.01532985  0.16275417  0.31648958     0.11800
H3542       H  0.94362530  0.19774877  0.31443297     0.13700
C3543       C  0.77184335  0.07812798  0.07518351    -0.01800
C3544       C  0.77192258  0.05202368  0.07618329    -0.09800
C3545       C  0.77825522  0.03981837  0.09846420    -0.18700
C3546       C  0.78480201  0.05365535  0.12013148     0.03700
C3547       C  0.78295360  0.08012569  0.11909414     0.17900
C3548       C  0.77616471  0.09189926  0.09698881    -0.20100
C3549       C  0.78931606  0.09496421  0.13964199    -0.21300
C3550       C  0.79986278  0.08421808  0.16060769    -0.19900
C3551       C  0.80354433  0.05840148  0.16160153     0.19300
C3552       C  0.79475718  0.04251789  0.14216000     0.01400
C3553       C  0.79786953  0.01640155  0.14508107    -0.14600
C3554       C  0.81132633  0.00682847  0.16531929    -0.12300
C3555       C  0.82199919  0.02305071  0.18279435     0.01000
C3556       C  0.81743598  0.04858602  0.18125402    -0.24500
H3557       H  0.76792764  0.04111944  0.05959200     0.09000
H3558       H  0.77886536  0.01967664  0.09788535     0.12500
H3559       H  0.77509624  0.11216361  0.09659984     0.11300
H3560       H  0.78747189  0.11514028  0.13893635     0.12500
H3561       H  0.80602415  0.09624232  0.17572794     0.11500
H3562       H  0.79087082  0.00307661  0.13167334     0.08600
H3563       H  0.81478366  0.98689770  0.16642067     0.11800
H3564       H  0.82593360  0.06108381  0.19454932     0.13700
C3565       C  0.82916342  0.97811653  0.32219193    -0.01800
C3566       C  0.80479601  0.96932445  0.31983919    -0.09800
C3567       C  0.79146016  0.96220012  0.34113253    -0.18700
C3568       C  0.80231789  0.96400279  0.36528551     0.03700
C3569       C  0.82664359  0.97434944  0.36730981     0.17900
C3570       C  0.83975327  0.98109743  0.34587362    -0.20100
C3571       C  0.83818163  0.97713404  0.39060752    -0.21300
C3572       C  0.82661279  0.96847834  0.41208051    -0.19900
C3573       C  0.80336243  0.95675619  0.41062058     0.19300
C3574       C  0.79051513  0.95493675  0.38734139     0.01400
C3575       C  0.76709754  0.94278233  0.38699113    -0.14600
C3576       C  0.75802086  0.93100977  0.40833737    -0.12300
C3577       C  0.77163987  0.93163223  0.43057007     0.01000
C3578       C  0.79362352  0.94537417  0.43204128    -0.24500
H3579       H  0.79640863  0.96721146  0.30152430     0.09000
H3580       H  0.77293692  0.95503536  0.33803179     0.12500
H3581       H  0.85857426  0.98837278  0.34756897     0.11300
H3582       H  0.85661536  0.98536512  0.39213349     0.12500
H3583       H  0.83634990  0.97005342  0.42978571     0.11500
H3584       H  0.75597851  0.94094280  0.37032481     0.08600
H3585       H  0.74095191  0.92019471  0.40713956     0.11800
H3586       H  0.80398149  0.94574497  0.44941811     0.13700
C3587       C  0.93200960  0.93355815  0.22596676    -0.01800
C3588       C  0.93676573  0.91321631  0.24157855    -0.09800
C3589       C  0.94801738  0.89176248  0.23205954    -0.18700
C3590       C  0.95430523  0.89016518  0.20643764     0.03700
C3591       C  0.95129148  0.91192780  0.19139358     0.17900
C3592       C  0.94035175  0.93337236  0.20137143    -0.20100
C3593       C  0.95761403  0.91168587  0.16606965    -0.21300
C3594       C  0.96545550  0.88973988  0.15486992    -0.19900
C3595       C  0.96697446  0.86765594  0.16878011     0.19300
C3596       C  0.96211008  0.86752731  0.19487645     0.01400
C3597       C  0.96418741  0.84450699  0.20789442    -0.14600
C3598       C  0.97002435  0.82242233  0.19522085    -0.12300
C3599       C  0.97365385  0.82281154  0.16940528     0.01000
C3600       C  0.97265106  0.84549358  0.15645051    -0.24500
H3601       H  0.93021686  0.91328957  0.26075224     0.09000
H3602       H  0.95041864  0.87641576  0.24489704     0.12500
H3603       H  0.93677965  0.94928691  0.18951974     0.11300
H3604       H  0.95560018  0.92833113  0.15466471     0.12500
H3605       H  0.96953295  0.88984516  0.13501860     0.11500
H3606       H  0.96104669  0.84287463  0.22772903     0.08600
H3607       H  0.97117664  0.80498836  0.20546778     0.11800
H3608       H  0.97623894  0.84590938  0.13648234     0.13700
C3609       C  0.83890120  0.91594804  0.26402909    -0.01800
C3610       C  0.85142904  0.89469996  0.27307573    -0.09800
C3611       C  0.83980196  0.87113158  0.27359288    -0.18700
C3612       C  0.81502868  0.86785505  0.26497405     0.03700
C3613       C  0.80208621  0.88959619  0.25671084     0.17900
C3614       C  0.81399645  0.91316998  0.25631158    -0.20100
C3615       C  0.77740461  0.88765291  0.24837202    -0.21300
C3616       C  0.76540276  0.86459405  0.24750776    -0.19900
C3617       C  0.77775910  0.84270988  0.25476194     0.19300
C3618       C  0.80270474  0.84389974  0.26379560     0.01400
C3619       C  0.81420992  0.82098373  0.27065409    -0.14600
C3620       C  0.80161105  0.79799830  0.26813215    -0.12300
C3621       C  0.77715352  0.79706824  0.25888350     0.01000
C3622       C  0.76534387  0.81957588  0.25253907    -0.24500
H3623       H  0.87062499  0.89613024  0.27924586     0.09000
H3624       H  0.85077657  0.85573014  0.28050185     0.12500
H3625       H  0.80394680  0.92933962  0.24938526     0.11300
H3626       H  0.76734208  0.90410619  0.24219299     0.12500
H3627       H  0.74636278  0.86382938  0.24070502     0.11500
H3628       H  0.83303794  0.82023733  0.27768180     0.08600
H3629       H  0.81105568  0.78085588  0.27326586     0.11800
H3630       H  0.74643236  0.81896414  0.24532934     0.13700
C3631       C  0.83406130  0.08293428  0.23815833    -0.01800
C3632       C  0.80970478  0.08567729  0.24723460    -0.09800
C3633       C  0.79793602  0.10914139  0.24728532    -0.18700
C3634       C  0.81028193  0.13088139  0.23839918     0.03700
C3635       C  0.83496620  0.12799499  0.22921002     0.17900
C3636       C  0.84639060  0.10428757  0.22892662    -0.20100
C3637       C  0.84833804  0.14886887  0.22072874    -0.21300
C3638       C  0.83785595  0.17268832  0.22142050    -0.19900
C3639       C  0.81356639  0.17630821  0.23030236     0.19300
C3640       C  0.79928342  0.15539273  0.23861846     0.01400
C3641       C  0.77464664  0.15999386  0.24682497    -0.14600
C3642       C  0.76486826  0.18422223  0.24724562    -0.12300
C3643       C  0.77914226  0.20481890  0.23966562     0.01000
C3644       C  0.80348984  0.20073613  0.23101047    -0.24500
H3645       H  0.79974800  0.06964747  0.25455888     0.09000
H3646       H  0.77927303  0.10972528  0.25477246     0.12500
H3647       H  0.86531052  0.10262435  0.22195552     0.11300
H3648       H  0.86721402  0.14680445  0.21377671     0.12500
H3649       H  0.84886541  0.18841635  0.21497366     0.11500
H3650       H  0.76242453  0.14523381  0.25302995     0.08600
H3651       H  0.74596215  0.18699663  0.25387078     0.11800
H3652       H  0.81454964  0.21657310  0.22490395     0.13700
C3653       C  0.97371073  0.00893272  0.45319475    -0.01800
C3654       C  0.98818123  0.00346487  0.43211794    -0.09800
C3655       C  0.97826461  0.00510133  0.40805936    -0.18700
C3656       C  0.95320936  0.01228826  0.40411205     0.03700
C3657       C  0.93851315  0.01803873  0.42557446     0.17900
C3658       C  0.94884236  0.01637015  0.44985058    -0.20100
C3659       C  0.91356079  0.02519245  0.42262545    -0.21300
C3660       C  0.90283697  0.02659606  0.39892185    -0.19900
C3661       C  0.91673876  0.02083727  0.37747694     0.19300
C3662       C  0.94215814  0.01368354  0.37970371     0.01400
C3663       C  0.95524293  0.00790140  0.35739295    -0.14600
C3664       C  0.94336674  0.00838936  0.33404652    -0.12300
C3665       C  0.91816626  0.01494637  0.33195881     0.01000
C3666       C  0.90516335  0.02167111  0.35382764    -0.24500
H3667       H  0.00740526  0.99757918  0.43435555     0.09000
H3668       H  0.99070869  0.00045453  0.39294388     0.12500
H3669       H  0.93755787  0.02063309  0.46611251     0.11300
H3670       H  0.90219293  0.02958914  0.43878701     0.12500
H3671       H  0.88341249  0.03199891  0.39737167     0.11500
H3672       H  0.97459749  0.00248033  0.35735715     0.08600
H3673       H  0.95388929  0.00312958  0.31757871     0.11800
H3674       H  0.88563981  0.02680207  0.35260635     0.13700
C3675       C  0.07601768  0.26605503  0.92498393    -0.01800
C3676       C  0.07535859  0.27102145  0.95058391    -0.09800
C3677       C  0.09746363  0.27684292  0.96330008    -0.18700
C3678       C  0.12063192  0.27786264  0.95044610     0.03700
C3679       C  0.12103067  0.27089594  0.92484192     0.17900
C3680       C  0.09895066  0.26487980  0.91260229    -0.20100
C3681       C  0.14316568  0.27154081  0.91101932    -0.21300
C3682       C  0.16469955  0.28129441  0.92145200    -0.19900
C3683       C  0.16454168  0.29013964  0.94601069     0.19300
C3684       C  0.14298329  0.28730464  0.96135353     0.01400
C3685       C  0.14431023  0.29579107  0.98634393    -0.14600
C3686       C  0.16501817  0.30921549  0.99465836    -0.12300
C3687       C  0.18488359  0.31403035  0.97846996     0.01000
C3688       C  0.18521534  0.30346111  0.95472476    -0.24500
H3689       H  0.05771903  0.27150418  0.96045039     0.09000
H3690       H  0.09567938  0.28145692  0.98282971     0.12500
H3691       H  0.09949724  0.26036358  0.89283841     0.11300
H3692       H  0.14347758  0.26578395  0.89157956     0.12500
H3693       H  0.18123624  0.28299075  0.90989397     0.11500
H3694       H  0.12922548  0.29343784  0.99945311     0.08600
H3695       H  0.16481594  0.31726907  0.01325450     0.11800
H3696       H  0.20086372  0.30701894  0.94245071     0.13700
C3697       C  0.03346811  0.17870873  0.82789137    -0.01800
C3698       C  0.05570318  0.16835453  0.83677283    -0.09800
C3699       C  0.06518047  0.14680238  0.82624943    -0.18700
C3700       C  0.05255365  0.13494372  0.80644073     0.03700
C3701       C  0.03220511  0.14741160  0.79498293     0.17900
C3702       C  0.02245802  0.16916524  0.80607150    -0.20100
C3703       C  0.02159358  0.13757242  0.77310943    -0.21300
C3704       C  0.03101386  0.11561438  0.76253039    -0.19900
C3705       C  0.05000072  0.10221431  0.77460589     0.19300
C3706       C  0.05992114  0.11126405  0.79749031     0.01400
C3707       C  0.07653336  0.09606800  0.81100106    -0.14600
C3708       C  0.08576004  0.07441201  0.80055720    -0.12300
C3709       C  0.07862230  0.06707876  0.77650096     0.01000
C3710       C  0.05974364  0.08020553  0.76396692    -0.24500
H3711       H  0.06519243  0.17626346  0.85283694     0.09000
H3712       H  0.08236960  0.13974715  0.83402795     0.12500
H3713       H  0.00566836  0.17769678  0.79866048     0.11300
H3714       H  0.00627650  0.14710562  0.76394943     0.12500
H3715       H  0.02306560  0.10880264  0.74518633     0.11500
H3716       H  0.08283751  0.10056937  0.82962709     0.08600
H3717       H  0.09979265  0.06412029  0.81084613     0.11800
H3718       H  0.05381116  0.07423905  0.74552729     0.13700
C3719       C  0.98526557  0.32214034  0.82603495    -0.01800
C3720       C  0.97567503  0.31971286  0.80194776    -0.09800
C3721       C  0.96859501  0.34098157  0.78859851    -0.18700
C3722       C  0.97098486  0.36515425  0.79927060     0.03700
C3723       C  0.98313233  0.36733864  0.82276952     0.17900
C3724       C  0.98995838  0.34587173  0.83594359    -0.20100
C3725       C  0.98715811  0.39081499  0.83361572    -0.21300
C3726       C  0.97756240  0.41221121  0.82252616    -0.19900
C3727       C  0.96335063  0.41044013  0.80067141     0.19300
C3728       C  0.96044487  0.38698336  0.78831969     0.01400
C3729       C  0.94533818  0.38605059  0.76669780    -0.14600
C3730       C  0.93203571  0.40697328  0.75899718    -0.12300
C3731       C  0.93396256  0.42945351  0.77208629     0.01000
C3732       C  0.95040993  0.43157180  0.79215652    -0.24500
H3733       H  0.97252648  0.30135314  0.79397641     0.09000
H3734       H  0.96074142  0.33783732  0.77031439     0.12500
H3735       H  0.99811765  0.34755980  0.85444474     0.11300
H3736       H  0.99691740  0.39252343  0.85129601     0.12500
H3737       H  0.98004253  0.43003876  0.83186572     0.11500
H3738       H  0.94220629  0.36914127  0.75620170     0.08600
H3739       H  0.91918242  0.40527489  0.74343060     0.11800
H3740       H  0.95164056  0.44910390  0.80225997     0.13700
C3741       C  0.92452649  0.22602760  0.91700939    -0.01800
C3742       C  0.92028144  0.23129827  0.94225626    -0.09800
C3743       C  0.89762130  0.22444108  0.95341192    -0.18700
C3744       C  0.87877067  0.21213603  0.93938561     0.03700
C3745       C  0.88323703  0.20766614  0.91363506     0.17900
C3746       C  0.90567002  0.21463964  0.90289926    -0.20100
C3747       C  0.86565542  0.19551066  0.89863926    -0.21300
C3748       C  0.84422591  0.18586025  0.90910886    -0.19900
C3749       C  0.83988194  0.18857106  0.93465436     0.19300
C3750       C  0.85627408  0.20283769  0.95001800     0.01400
C3751       C  0.84996930  0.20587883  0.97551735    -0.14600
C3752       C  0.82971196  0.19299569  0.98571635    -0.12300
C3753       C  0.81562793  0.17688640  0.97072061     0.01000
C3754       C  0.82007270  0.17558743  0.94517867    -0.24500
H3755       H  0.93449252  0.24045717  0.95337343     0.09000
H3756       H  0.89559235  0.22849460  0.97305070     0.12500
H3757       H  0.90838098  0.21088785  0.88314657     0.11300
H3758       H  0.86899192  0.19251689  0.87886548     0.12500
H3759       H  0.83141770  0.17544808  0.89733666     0.11500
H3760       H  0.86083114  0.21725940  0.98811407     0.08600
H3761       H  0.82616280  0.19422911  0.00561798     0.11800
H3762       H  0.80907983  0.16306376  0.93367381     0.13700
C3763       C  0.08516411  0.23319563  0.83572602    -0.01800
C3764       C  0.10628717  0.22540137  0.84921456    -0.09800
C3765       C  0.12998824  0.22491061  0.83822000    -0.18700
C3766       C  0.13351773  0.23189400  0.81297915     0.03700
C3767       C  0.11191366  0.23850296  0.79893293     0.17900
C3768       C  0.08815371  0.23932255  0.81038119    -0.20100
C3769       C  0.11421021  0.24463249  0.77359382    -0.21300
C3770       C  0.13746897  0.24481395  0.76198981    -0.19900
C3771       C  0.15919057  0.23929849  0.77547711     0.19300
C3772       C  0.15761990  0.23273758  0.80118922     0.01400
C3773       C  0.18030330  0.22785508  0.81398371    -0.14600
C3774       C  0.20343614  0.22968699  0.80180073    -0.12300
C3775       C  0.20481325  0.23640667  0.77653572     0.01000
C3776       C  0.18254467  0.24086331  0.76346662    -0.24500
H3777       H  0.10467971  0.22026678  0.86873232     0.09000
H3778       H  0.14521603  0.21906870  0.85000434     0.12500
H3779       H  0.07202923  0.24512833  0.79960928     0.11300
H3780       H  0.09788080  0.24947972  0.76266380     0.12500
H3781       H  0.13851856  0.24977638  0.74237504     0.11500
H3782       H  0.18079815  0.22298284  0.83352132     0.08600
H3783       H  0.22038103  0.22610302  0.81224067     0.11800
H3784       H  0.18350668  0.24627659  0.74395301     0.13700
C3785       C  0.01468915  0.32823733  0.92049553    -0.01800
C3786       C  0.00391530  0.33026070  0.94429438    -0.09800
C3787       C  0.00369632  0.35313922  0.95714059    -0.18700
C3788       C  0.01413457  0.37504980  0.94649213     0.03700
C3789       C  0.02574243  0.37275265  0.92271269     0.17900
C3790       C  0.02606516  0.34957605  0.91013735    -0.20100
C3791       C  0.03635577  0.39377599  0.91124291    -0.21300
C3792       C  0.03507260  0.41723094  0.92249321    -0.19900
C3793       C  0.02318997  0.42036400  0.94557610     0.19300
C3794       C  0.01292249  0.39923627  0.95816308     0.01400
C3795       C  0.00143746  0.40340821  0.98160931    -0.14600
C3796       C  0.99949415  0.42750427  0.99161456    -0.12300
C3797       C  0.00889368  0.44828358  0.97878034     0.01000
C3798       C  0.02109775  0.44458438  0.95593117    -0.24500
H3799       H  0.99500923  0.31420452  0.95282001     0.09000
H3800       H  0.99470741  0.35318633  0.97516418     0.12500
H3801       H  0.03448033  0.34842269  0.89173999     0.11300
H3802       H  0.04532493  0.39215995  0.89315736     0.12500
H3803       H  0.04310170  0.43313488  0.91284749     0.11500
H3804       H  0.99351670  0.38847053  0.99255355     0.08600
H3805       H  0.99021746  0.43003646  0.00943010     0.11800
H3806       H  0.02858881  0.46063044  0.94607089     0.13700
C3807       C  0.92265326  0.26084187  0.82782181    -0.01800
C3808       C  0.90471417  0.27879786  0.83451708    -0.09800
C3809       C  0.88069306  0.27862723  0.82407042    -0.18700
C3810       C  0.87341488  0.26007737  0.80667774     0.03700
C3811       C  0.89169713  0.24203119  0.79969588     0.17900
C3812       C  0.91604565  0.24279364  0.80992948    -0.20100
C3813       C  0.88535220  0.22282065  0.78308249    -0.21300
C3814       C  0.86130033  0.22094545  0.77340297    -0.19900
C3815       C  0.84291330  0.23843793  0.77971757     0.19300
C3816       C  0.84865842  0.25845858  0.79625413     0.01400
C3817       C  0.82934674  0.27587903  0.80146496    -0.14600
C3818       C  0.80554542  0.27351588  0.79058325    -0.12300
C3819       C  0.80008406  0.25363188  0.77441313     0.01000
C3820       C  0.81885358  0.23609619  0.76930139    -0.24500
H3821       H  0.90911092  0.29283057  0.84844716     0.09000
H3822       H  0.86799714  0.29288939  0.83046539     0.12500
H3823       H  0.92944545  0.22845022  0.80495001     0.11300
H3824       H  0.89905160  0.20891441  0.77773151     0.12500
H3825       H  0.85707310  0.20569263  0.76074056     0.11500
H3826       H  0.83219490  0.29169931  0.81362451     0.08600
H3827       H  0.79136222  0.28731653  0.79472112     0.11800
H3828       H  0.81477852  0.22077263  0.75664633     0.13700
C3829       C  0.95342819  0.02459444  0.00758294    -0.01800
C3830       C  0.93258613  0.01130193  0.99902960    -0.09800
C3831       C  0.90850805  0.02128705  0.00078482    -0.18700
C3832       C  0.90430711  0.04521628  0.01125666     0.03700
C3833       C  0.92546155  0.05844623  0.02055622     0.17900
C3834       C  0.94972112  0.04810552  0.01864072    -0.20100
C3835       C  0.92226518  0.08207585  0.03138527    -0.21300
C3836       C  0.89873796  0.09317325  0.03254101    -0.19900
C3837       C  0.87765173  0.08102044  0.02285747     0.19300
C3838       C  0.88003288  0.05669539  0.01239895     0.01400
C3839       C  0.85807371  0.04524376  0.00303866    -0.14600
C3840       C  0.83506816  0.05777969  0.00312287    -0.12300
C3841       C  0.83288593  0.08213779  0.01261886     0.01000
C3842       C  0.85431573  0.09337157  0.02297251    -0.24500
H3843       H  0.93503544  0.99303892  0.99059762     0.09000
H3844       H  0.89358635  0.00989499  0.99354889     0.12500
H3845       H  0.96573566  0.05839832  0.02553303     0.11300
H3846       H  0.93816550  0.09224792  0.03869923     0.12500
H3847       H  0.89710340  0.11164999  0.04069523     0.11500
H3848       H  0.85814438  0.02675720  0.99504883     0.08600
H3849       H  0.81898708  0.04850478  0.99507489     0.11800
H3850       H  0.85305432  0.11216367  0.03046283     0.13700
C3851       C  0.02696853  0.00928169  0.95168164    -0.01800
C3852       C  0.04916299  0.02285845  0.94886088    -0.09800
C3853       C  0.06079868  0.02495451  0.92531274    -0.18700
C3854       C  0.05058227  0.01335137  0.90370251     0.03700
C3855       C  0.02784561  0.99995260  0.90675703     0.17900
C3856       C  0.01640191  0.99807767  0.93045248    -0.20100
C3857       C  0.01670537  0.98821773  0.88617206    -0.21300
C3858       C  0.02768099  0.98920669  0.86260241    -0.19900
C3859       C  0.05027412  0.00179827  0.85885765     0.19300
C3860       C  0.06208004  0.01415631  0.87929850     0.01400
C3861       C  0.08505904  0.02625591  0.87439299    -0.14600
C3862       C  0.09610578  0.02540172  0.85056717    -0.12300
C3863       C  0.08463467  0.01281106  0.83051562     0.01000
C3864       C  0.06138803  0.00147254  0.83486057    -0.24500
H3865       H  0.05766248  0.03165499  0.96500064     0.09000
H3866       H  0.07786439  0.03559622  0.92459033     0.12500
H3867       H  0.99924579  0.98751241  0.93252412     0.11300
H3868       H  0.99934935  0.97803026  0.88834063     0.12500
H3869       H  0.01854065  0.97972623  0.84720135     0.11500
H3870       H  0.09519200  0.03608365  0.88877144     0.08600
H3871       H  0.11405615  0.03432800  0.84798030     0.11800
H3872       H  0.05229476  0.99149868  0.81974171     0.13700
C3873       C  0.00991736  0.95222771  0.02434581    -0.01800
C3874       C  0.02118843  0.94975332  0.04784311    -0.09800
C3875       C  0.02310156  0.92620980  0.05944856    -0.18700
C3876       C  0.01354279  0.90427135  0.04790716     0.03700
C3877       C  0.00224565  0.90702446  0.02400242     0.17900
C3878       C  0.00068398  0.93071765  0.01252059    -0.20100
C3879       C  0.99216880  0.88615789  0.01179803    -0.21300
C3880       C  0.99261365  0.86261480  0.02292352    -0.19900
C3881       C  0.00329360  0.85912948  0.04655430     0.19300
C3882       C  0.01425474  0.87983370  0.05927102     0.01400
C3883       C  0.02507503  0.87513528  0.08291466    -0.14600
C3884       C  0.02410497  0.85130432  0.09382080    -0.12300
C3885       C  0.01241131  0.83106331  0.08172050     0.01000
C3886       C  0.00251326  0.83513778  0.05774811    -0.24500
H3887       H  0.02832571  0.96614656  0.05734756     0.09000
H3888       H  0.03183251  0.92579851  0.07758786     0.12500
H3889       H  0.99177061  0.93257959  0.99440563     0.11300
H3890       H  0.98355920  0.88811240  0.99356207     0.12500
H3891       H  0.98429754  0.84701041  0.01301832     0.11500
H3892       H  0.03411236  0.88961412  0.09361181     0.08600
H3893       H  0.03209663  0.84892329  0.11226720     0.11800
H3894       H  0.99341950  0.81981629  0.04808095     0.13700
C3895       C  0.04653477  0.97252184  0.98826164    -0.01800
C3896       C  0.04990690  0.95096267  0.97382592    -0.09800
C3897       C  0.07347562  0.93952571  0.97213548    -0.18700
C3898       C  0.09451225  0.94939393  0.98494383     0.03700
C3899       C  0.09095626  0.97171030  0.99896908     0.17900
C3900       C  0.06720364  0.98288558  0.00054969    -0.20100
C3901       C  0.11108469  0.98266985  0.01158128    -0.21300
C3902       C  0.13468976  0.97184240  0.01088784    -0.19900
C3903       C  0.13883852  0.94953793  0.99782938     0.19300
C3904       C  0.11883100  0.93793580  0.98465129     0.01400
C3905       C  0.12400619  0.91512080  0.97229952    -0.14600
C3906       C  0.14774260  0.90410836  0.97347616    -0.12300
C3907       C  0.16739435  0.91544448  0.98669102     0.01000
C3908       C  0.16278040  0.93846436  0.99846610    -0.24500
H3909       H  0.03417999  0.94279412  0.96406263     0.09000
H3910       H  0.07465770  0.92292649  0.96076737     0.12500
H3911       H  0.06464903  0.99967637  0.01163278     0.11300
H3912       H  0.10852971  0.99974342  0.02219293     0.12500
H3913       H  0.14976737  0.98081559  0.02100231     0.11500
H3914       H  0.10991664  0.90505805  0.96201087     0.08600
H3915       H  0.15060936  0.88631767  0.96422720     0.11800
H3916       H  0.17761584  0.94736248  0.00901170     0.13700
C3917       C  0.91735631  0.98785219  0.16541626    -0.01800
C3918       C  0.90822173  0.97167449  0.14684188    -0.09800
C3919       C  0.91933328  0.97046944  0.12314135    -0.18700
C3920       C  0.93993341  0.98579672  0.11692193     0.03700
C3921       C  0.94944462  0.00183919  0.13595233     0.17900
C3922       C  0.93836438  0.00250160  0.15989199    -0.20100
C3923       C  0.96963993  0.01761726  0.13082695    -0.21300
C3924       C  0.98036435  0.01819863  0.10715691    -0.19900
C3925       C  0.97135506  0.00287096  0.08794664     0.19300
C3926       C  0.95117932  0.98619875  0.09249521     0.01400
C3927       C  0.94309291  0.97098570  0.07227611    -0.14600
C3928       C  0.95439348  0.97257586  0.04860549    -0.12300
C3929       C  0.97396888  0.98935298  0.04433635     0.01000
C3930       C  0.98236516  0.00433167  0.06411245    -0.24500
H3931       H  0.89214860  0.95997245  0.15056543     0.09000
H3932       H  0.91109503  0.95769150  0.10992436     0.12500
H3933       H  0.94561548  0.01514160  0.17398702     0.11300
H3934       H  0.97701929  0.02988508  0.14517596     0.12500
H3935       H  0.99579456  0.03087133  0.10381313     0.11500
H3936       H  0.92804325  0.95776360  0.07417708     0.08600
H3937       H  0.94767282  0.96087234  0.03350586     0.11800
H3938       H  0.99754544  0.01734003  0.06079582     0.13700
C3939       C  0.99147206  0.04635157  0.97352565    -0.01800
C3940       C  0.00554354  0.06566616  0.98418143    -0.09800
C3941       C  0.00343217  0.09028435  0.97561518    -0.18700
C3942       C  0.98723892  0.09646664  0.95565999     0.03700
C3943       C  0.97275820  0.07679104  0.94502079     0.17900
C3944       C  0.97476300  0.05205819  0.95419158    -0.20100
C3945       C  0.95684978  0.08185198  0.92487544    -0.21300
C3946       C  0.95597792  0.10562660  0.91420456    -0.19900
C3947       C  0.97056580  0.12520197  0.92371665     0.19300
C3948       C  0.98565224  0.12117909  0.94520836     0.01400
C3949       C  0.99897487  0.14195338  0.95481530    -0.14600
C3950       C  0.99884410  0.16510033  0.94249917    -0.12300
C3951       C  0.98552907  0.16847789  0.92016173     0.01000
C3952       C  0.97078185  0.14855624  0.91136112    -0.24500
H3953       H  0.01831808  0.06161091  0.99935291     0.09000
H3954       H  0.01515182  0.10395917  0.98462619     0.12500
H3955       H  0.96366517  0.03717441  0.94606332     0.11300
H3956       H  0.94558086  0.06709674  0.91676613     0.12500
H3957       H  0.94410527  0.10861041  0.89807069     0.11500
H3958       H  0.01006772  0.14077664  0.97158103     0.08600
H3959       H  0.01017256  0.18012336  0.94997343     0.11800
H3960       H  0.96002697  0.15096034  0.89435346     0.13700
loop_ 
_geom_bond_atom_site_label_1 
_geom_bond_atom_site_label_2 
_geom_bond_distance 
_geom_bond_site_symmetry_2 
_ccdc_geom_bond_type 
C1            C2   1.421   1_554  A
C1            C6   1.419   1_545  A
C1         C3829   1.501       .  S
C2            C3   1.425   1_655  A
C2         C3939   1.493       .  S
C3            C4   1.424   1_545  A
C3         C3851   1.503       .  S
C4            C5   1.424   1_556  A
C4         C3895   1.496       .  S
C5            C6   1.421   1_455  A
C5         C3873   1.500       .  S
C6         C3929   1.494       .  S
O7           C15   1.271       .  A
O7          Co27   2.001       .  S
O8           C16   1.272       .  A
O8          Co28   2.013       .  S
O9           C17   1.270       .  A
O9          Co29   1.988       .  S
O10          C18   1.267       .  A
O10         Co30   1.984       .  S
O11          C17   1.272       .  A
O11         Co28   2.026       .  S
O12          C18   1.272       .  A
O12         Co27   2.035       .  S
O13          C16   1.261   1_455  A
O13         Co30   1.961       .  S
O14          C15   1.263       .  A
O14         Co29   1.963   1_455  S
C15        C3697   1.462       .  S
C16        C3719   1.457       .  S
C17        C3807   1.497       .  S
C18        C3763   1.495       .  S
O19          C32   1.263       .  A
O19         Co27   1.967       .  S
O20          C33   1.266       .  A
O20         Co28   1.974       .  S
O21          C34   1.274       .  A
O21         Co29   2.042       .  S
O22          C35   1.272       .  A
O22         Co30   2.033       .  S
O23          C35   1.267   1_655  A
O23         Co28   1.981       .  S
O24          C34   1.266   1_455  A
O24         Co27   1.977       .  S
O25          C32   1.271       .  A
O25         Co30   2.001       .  S
O26          C33   1.268       .  A
O26         Co29   1.979       .  S
Co27         O31   2.098       .  S
Co28         O31   2.106   1_655  S
Co29         O31   2.107   1_655  S
Co30         O31   2.100       .  S
C32        C3675   1.463       .  S
C33        C3741   1.469       .  S
C34        C3951   1.496       .  S
C35        C3785   1.495       .  S
O36          C44   1.277       .  A
O36         Co56   2.024       .  S
O37          C45   1.275       .  A
O37         Co57   2.012       .  S
O38          C46   1.262       .  A
O38         Co58   1.981       .  S
O39          C47   1.266       .  A
O39         Co59   1.985       .  S
O40          C46   1.269       .  A
O40         Co57   2.038       .  S
O41          C47   1.266       .  A
O41         Co56   2.019       .  S
O42          C45   1.266       .  A
O42         Co59   1.964   1_565  S
O43          C44   1.264   1_565  A
O43         Co58   1.951       .  S
C44        C3555   1.457       .  S
C45        C3565   1.458       .  S
C46        C3609   1.500       .  S
C47        C3631   1.496       .  S
O48          C61   1.266       .  A
O48         Co56   1.964       .  S
O49          C62   1.261       .  A
O49         Co57   1.948       .  S
O50          C63   1.267       .  A
O50         Co58   2.024       .  S
O51          C64   1.265       .  A
O51         Co59   2.020       .  S
O52          C64   1.264       .  A
O52         Co57   1.985   1_545  S
O53          C63   1.263   1_545  A
O53         Co56   1.981       .  S
O54          C61   1.277       .  A
O54         Co59   2.015       .  S
O55          C62   1.276       .  A
O55         Co58   2.023       .  S
Co56         O60   2.103       .  S
Co57         O60   2.105   1_565  S
Co58         O60   2.102   1_565  S
Co59         O60   2.104       .  S
C61        C3521   1.464       .  S
C62        C3587   1.451       .  S
C63        C3917   1.495       .  S
C64        C3665   1.492       .  S
C65          C66   1.423   1_565  A
C65          C70   1.418       .  A
C65        C3411   1.494       .  S
C66          C67   1.422   1_655  A
C66        C3653   1.493       .  S
C67          C68   1.418       .  A
C67        C3477   1.499       .  S
C68          C69   1.416   1_545  A
C68        C3445   1.491       .  S
C69          C70   1.414   1_455  A
C69        C3455   1.489       .  S
C70        C3511   1.492       .  S
O71          C79   1.279       .  A
O71         Co91   2.028       .  S
O72          C80   1.277       .  A
O72         Co92   2.009       .  S
O73          C81   1.262       .  A
O73         Co93   1.981       .  S
O74          C82   1.266       .  A
O74         Co94   1.988       .  S
O75          C81   1.266       .  A
O75         Co92   2.027       .  S
O76          C82   1.266       .  A
O76         Co91   2.020       .  S
O77          C80   1.265       .  A
O77         Co94   1.954   1_655  S
O78          C79   1.263   1_655  A
O78         Co93   1.948       .  S
C79        C3257   1.455       .  S
C80        C3279   1.461       .  S
C81        C3389   1.493       .  S
C82        C3357   1.497       .  S
O83          C96   1.267       .  A
O83         Co91   1.962       .  S
O84          C97   1.263       .  A
O84         Co92   1.950       .  S
O85          C98   1.264       .  A
O85         Co93   2.014       .  S
O86          C99   1.268       .  A
O86         Co94   2.028       .  S
O87          C99   1.263   1_655  A
O87         Co92   1.979       .  S
O88          C98   1.262   1_455  A
O88         Co91   1.981       .  S
O89          C96   1.276       .  A
O89         Co94   2.009       .  S
O90          C97   1.278       .  A
O90         Co93   2.028       .  S
Co91         O95   2.100   1_455  S
Co92         O95   2.098       .  S
Co93         O95   2.100       .  S
Co94         O95   2.103   1_455  S
C96        C3301   1.465       .  S
C97        C3323   1.457       .  S
C98        C3499   1.490       .  S
C99        C3379   1.491       .  S
O100        C108   1.273       .  A
O100       Co120   1.996       .  S
O101        C109   1.272       .  A
O101       Co121   1.997       .  S
O102        C110   1.267       .  A
O102       Co122   1.986       .  S
O103        C111   1.267       .  A
O103       Co123   1.988       .  S
O104        C110   1.270       .  A
O104       Co121   2.024       .  S
O105        C111   1.270       .  A
O105       Co120   2.027       .  S
O106        C109   1.267   1_554  A
O106       Co123   1.968       .  S
O107        C108   1.265       .  A
O107       Co122   1.964   1_554  S
C108       C3103   1.464       .  S
C109       C3125   1.460       .  S
C110       C3191   1.492       .  S
C111       C3213   1.496       .  S
O112        C125   1.264       .  A
O112       Co120   1.952       .  S
O113        C126   1.266       .  A
O113       Co121   1.963       .  S
O114        C127   1.272       .  A
O114       Co122   2.035       .  S
O115        C128   1.268       .  A
O115       Co123   2.019       .  S
O116        C128   1.269   1_556  A
O116       Co121   1.995       .  S
O117        C127   1.266       .  A
O117       Co120   1.983   1_556  S
O118        C125   1.275       .  A
O118       Co123   2.014       .  S
O119        C126   1.273       .  A
O119       Co122   1.993       .  S
Co120       O124   2.098       .  S
Co121       O124   2.106   1_556  S
Co122       O124   2.103   1_556  S
Co123       O124   2.097       .  S
C125       C3147   1.455       .  S
C126       C3169   1.464       .  S
C127       C3907   1.498       .  S
C128       C3235   1.498       .  S
O129        C137   1.264       .  A
O129       Co149   1.962   1_655  S
O130        C138   1.261   1_655  A
O130       Co150   1.958       .  S
O131        C139   1.274       .  A
O131       Co151   2.040       .  S
O132        C140   1.271       .  A
O132       Co152   2.027       .  S
O133        C139   1.267       .  A
O133       Co150   1.984       .  S
O134        C140   1.267       .  A
O134       Co149   1.985       .  S
O135        C138   1.272       .  A
O135       Co152   2.013       .  S
O136        C137   1.272       .  A
O136       Co151   2.001       .  S
C137       C3599   1.460       .  S
C138       C3015   1.452       .  S
C139       C3059   1.501       .  S
C140       C3081   1.494       .  S
O141        C154   1.271       .  A
O141       Co149   1.996       .  S
O142        C155   1.272       .  A
O142       Co150   1.994       .  S
O143        C156   1.271   1_655  A
O143       Co151   1.995       .  S
O144        C157   1.265   1_455  A
O144       Co152   1.980       .  S
O145        C157   1.273       .  A
O145       Co150   2.039       .  S
O146        C156   1.271       .  A
O146       Co149   2.029       .  S
O147        C154   1.264       .  A
O147       Co152   1.963       .  S
O148        C155   1.266       .  A
O148       Co151   1.975       .  S
Co149       O153   2.097   1_455  S
Co150       O153   2.091       .  S
Co151       O153   2.114       .  S
Co152       O153   2.111   1_455  S
C154       C3115   1.461       .  S
C155       C3005   1.467       .  S
C156       C3885   1.502       .  S
C157       C3037   1.497       .  S
C158        C159   1.421       .  A
C158        C163   1.418       .  A
C158       C2927   1.493       .  S
C159        C160   1.422       .  A
C159       C3225   1.496       .  S
C160        C161   1.424       .  A
C160       C3093   1.497       .  S
C161        C162   1.420       .  A
C161       C2961   1.494       .  S
C162        C163   1.416       .  A
C162       C2983   1.499       .  S
C163       C2905   1.489       .  S
O164        C172   1.267       .  A
O164       Co184   1.968       .  S
O165        C173   1.265       .  A
O165       Co185   1.966       .  S
O166        C174   1.272       .  A
O166       Co186   2.044       .  S
O167        C175   1.268       .  A
O167       Co187   2.021       .  S
O168        C174   1.264       .  A
O168       Co185   1.979       .  S
O169        C175   1.269       .  A
O169       Co184   1.994       .  S
O170        C173   1.274       .  A
O170       Co187   2.015       .  S
O171        C172   1.271       .  A
O171       Co186   1.992       .  S
C172       C3313   1.466       .  S
C173       C2817   1.458       .  S
C174       C2883   1.501       .  S
C175       C2971   1.499       .  S
O176        C189   1.274       .  A
O176       Co184   2.000       .  S
O177        C190   1.276       .  A
O177       Co185   2.023       .  S
O178        C191   1.266       .  A
O178       Co186   1.987       .  S
O179        C192   1.267       .  A
O179       Co187   1.990       .  S
O180        C192   1.268       .  A
O180       Co185   2.019       .  S
O181        C191   1.271       .  A
O181       Co184   2.037       .  S
O182        C189   1.265       .  A
O182       Co187   1.962       .  S
O183        C190   1.261       .  A
O183       Co186   1.946       .  S
Co184       O188   2.111       .  S
Co185       O188   2.097       .  S
Co186       O188   2.102       .  S
Co187       O188   2.107       .  S
C189       C2773   1.463       .  S
C190       C2807   1.454       .  S
C191       C2861   1.502       .  S
C192       C2839   1.498       .  S
C193        C194   1.423       .  A
C193        C198   1.426       .  A
C193       C2729   1.497       .  S
C194        C195   1.421       .  A
C194       C2895   1.498       .  S
C195        C196   1.419       .  A
C195       C3345   1.497       .  S
C196        C197   1.422       .  A
C196       C2707   1.495       .  S
C197        C198   1.427       .  A
C197       C3203   1.499       .  S
C198       C2751   1.506       .  S
O199        C207   1.275       .  A
O199       Co219   2.025       .  S
O200        C208   1.272       .  A
O200       Co220   1.993       .  S
O201        C209   1.265       .  A
O201       Co221   1.978       .  S
O202        C210   1.271       .  A
O202       Co222   1.994       .  S
O203        C209   1.272       .  A
O203       Co220   2.041       .  S
O204        C210   1.267       .  A
O204       Co219   2.014       .  S
O205        C208   1.266       .  A
O205       Co222   1.965       .  S
O206        C207   1.258       .  A
O206       Co221   1.942       .  S
C207       C3137   1.450       .  S
C208       C2597   1.466       .  S
C209       C2641   1.495       .  S
C210       C2685   1.494       .  S
O211        C224   1.267       .  A
O211       Co219   1.973       .  S
O212        C225   1.266       .  A
O212       Co220   1.971       .  S
O213        C226   1.272       .  A
O213       Co221   2.044       .  S
O214        C227   1.270       .  A
O214       Co222   2.026       .  S
O215        C227   1.269       .  A
O215       Co220   1.987       .  S
O216        C226   1.265       .  A
O216       Co219   1.982       .  S
O217        C224   1.271       .  A
O217       Co222   1.988       .  S
O218        C225   1.270       .  A
O218       Co221   1.991       .  S
Co219       O223   2.101       .  S
Co220       O223   2.104       .  S
Co221       O223   2.096       .  S
Co222       O223   2.106       .  S
C224       C2575   1.465       .  S
C225       C2619   1.466       .  S
C226       C2763   1.498       .  S
C227       C2663   1.493       .  S
C228        C229   1.422       .  A
C228        C233   1.422       .  A
C228       C2531   1.498       .  S
C229        C230   1.423       .  A
C229       C2553   1.495       .  S
C230        C231   1.423       .  A
C230       C3819   1.501       .  S
C231        C232   1.423       .  A
C231       C2487   1.500       .  S
C232        C233   1.422       .  A
C232       C2477   1.497       .  S
C233       C2509   1.498       .  S
O234        C242   1.275       .  A
O234       Co254   2.024       .  S
O235        C243   1.270       .  A
O235       Co255   1.985       .  S
O236        C244   1.264       .  A
O236       Co256   1.977       .  S
O237        C245   1.270       .  A
O237       Co257   1.994       .  S
O238        C244   1.274       .  A
O238       Co255   2.047       .  S
O239        C245   1.268       .  A
O239       Co254   2.016       .  S
O240        C243   1.267       .  A
O240       Co257   1.969       .  S
O241        C242   1.261       .  A
O241       Co256   1.956       .  S
C242       C3731   1.454       .  S
C243       C3291   1.462       .  S
C244       C2399   1.500       .  S
C245       C2421   1.491       .  S
O246        C259   1.265       .  A
O246       Co254   1.969       .  S
O247        C260   1.264       .  A
O247       Co255   1.959       .  S
O248        C261   1.270       .  A
O248       Co256   2.036       .  S
O249        C262   1.272       .  A
O249       Co257   2.034       .  S
O250        C262   1.269       .  A
O250       Co255   1.992       .  S
O251        C261   1.265       .  A
O251       Co254   1.980       .  S
O252        C259   1.272       .  A
O252       Co257   1.992       .  S
O253        C260   1.273       .  A
O253       Co256   2.002       .  S
Co254       O258   2.104       .  S
Co255       O258   2.109       .  S
Co256       O258   2.096       .  S
Co257       O258   2.105       .  S
C259       C2377   1.462       .  S
C260       C2355   1.460       .  S
C261       C2565   1.495       .  S
C262       C2455   1.505       .  S
O263        C271   1.259   1_455  A
O263       Co283   1.948       .  S
O264        C272   1.267       .  A
O264       Co284   1.969   1_455  S
O265        C273   1.268       .  A
O265       Co285   2.015       .  S
O266        C274   1.270       .  A
O266       Co286   2.041       .  S
O267        C273   1.269       .  A
O267       Co284   1.986       .  S
O268        C274   1.258       .  A
O268       Co283   1.963       .  S
O269        C272   1.272       .  A
O269       Co286   1.992       .  S
O270        C271   1.276       .  A
O270       Co285   2.027       .  S
C271       C3533   1.458       .  S
C272       C2279   1.467       .  S
C273       C2311   1.492       .  S
C274       C2333   1.487       .  S
O275        C288   1.274       .  A
O275       Co283   2.023       .  S
O276        C289   1.272       .  A
O276       Co284   1.987       .  S
O277        C290   1.266   1_655  A
O277       Co285   1.989       .  S
O278        C291   1.266   1_455  A
O278       Co286   1.985       .  S
O279        C291   1.271       .  A
O279       Co284   2.035       .  S
O280        C290   1.268       .  A
O280       Co283   2.025       .  S
O281        C288   1.258       .  A
O281       Co286   1.946       .  S
O282        C289   1.269       .  A
O282       Co285   1.973       .  S
Co283       O287   2.099       .  S
Co284       O287   2.107   1_655  S
Co285       O287   2.104   1_655  S
Co286       O287   2.099       .  S
C288       C2257   1.448       .  S
C289       C2223   1.470       .  S
C290       C3489   1.496       .  S
C291       C2289   1.499       .  S
C292        C293   1.417       .  A
C292        C297   1.420       .  A
C292       C2179   1.496       .  S
C293        C294   1.424       .  A
C293       C2147   1.503       .  S
C294        C295   1.425       .  A
C294       C2345   1.490       .  S
C295        C296   1.421       .  A
C295       C2113   1.500       .  S
C296        C297   1.421       .  A
C296       C2201   1.500       .  S
C297       C2157   1.490       .  S
O298        C306   1.259   1_554  A
O298       Co318   1.948       .  S
O299        C307   1.268   1_556  A
O299       Co319   1.971       .  S
O300        C308   1.267       .  A
O300       Co320   2.021       .  S
O301        C309   1.269       .  A
O301       Co321   2.030       .  S
O302        C308   1.265       .  A
O302       Co319   1.985       .  S
O303        C309   1.265       .  A
O303       Co318   1.987       .  S
O304        C307   1.274       .  A
O304       Co321   1.996       .  S
O305        C306   1.276       .  A
O305       Co320   2.027       .  S
C306       C3687   1.454       .  S
C307       C2037   1.473       .  S
C308       C2091   1.494       .  S
C309       C2213   1.500       .  S
O310        C323   1.273       .  A
O310       Co318   2.001       .  S
O311        C324   1.275       .  A
O311       Co319   2.026       .  S
O312        C325   1.257   1_556  A
O312       Co320   1.963       .  S
O313        C326   1.268       .  A
O313       Co321   1.986   1_556  S
O314        C326   1.267       .  A
O314       Co319   2.018       .  S
O315        C325   1.272       .  A
O315       Co318   2.051       .  S
O316        C323   1.267       .  A
O316       Co321   1.970       .  S
O317        C324   1.259       .  A
O317       Co320   1.949       .  S
Co318       O322   2.106   1_554  S
Co319       O322   2.115       .  S
Co320       O322   2.097       .  S
Co321       O322   2.106   1_554  S
C323       C2015   1.469       .  S
C324       C1981   1.453       .  S
C325       C2047   1.495       .  S
C326       C2081   1.496       .  S
C327        C328   1.423       .  A
C327        C332   1.420       .  A
C327       C2103   1.492       .  S
C328        C329   1.421       .  A
C328       C3775   1.499       .  S
C329        C330   1.421       .  A
C329       C1915   1.494       .  S
C330        C331   1.420       .  A
C330       C1893   1.494       .  S
C331        C332   1.419       .  A
C331       C1959   1.500       .  S
C332       C1937   1.497       .  S
O333        C341   1.277       .  A
O333       Co353   2.025       .  S
O334        C342   1.276       .  A
O334       Co354   2.008       .  S
O335        C343   1.265       .  A
O335       Co355   1.986       .  S
O336        C344   1.265       .  A
O336       Co356   1.995       .  S
O337        C343   1.268       .  A
O337       Co354   2.026       .  S
O338        C344   1.267       .  A
O338       Co353   2.023       .  S
O339        C342   1.268       .  A
O339       Co356   1.968       .  S
O340        C341   1.262       .  A
O340       Co355   1.944       .  S
C341       C1761   1.452       .  S
C342       C1805   1.468       .  S
C343       C1883   1.496       .  S
C344       C1861   1.500       .  S
O345        C358   1.263       .  A
O345       Co353   1.950       .  S
O346        C359   1.268       .  A
O346       Co354   1.968       .  S
O347        C360   1.269       .  A
O347       Co355   2.034       .  S
O348        C361   1.268       .  A
O348       Co356   2.025       .  S
O349        C361   1.265       .  A
O349       Co354   1.980       .  S
O350        C360   1.262       .  A
O350       Co353   1.983       .  S
O351        C358   1.277       .  A
O351       Co356   2.026       .  S
O352        C359   1.274       .  A
O352       Co355   1.998       .  S
Co353       O357   2.100       .  S
Co354       O357   2.105       .  S
Co355       O357   2.101       .  S
Co356       O357   2.111       .  S
C358       C1839   1.453       .  S
C359       C1783   1.468       .  S
C360       C2521   1.498       .  S
C361       C1971   1.493       .  S
O362        C370   1.266   1_545  A
O362       Co382   1.970       .  S
O363        C371   1.257       .  A
O363       Co383   1.942   1_545  S
O364        C372   1.269       .  A
O364       Co384   2.028       .  S
O365        C373   1.269       .  A
O365       Co385   2.024       .  S
O366        C372   1.265       .  A
O366       Co383   1.982       .  S
O367        C373   1.265       .  A
O367       Co382   1.986       .  S
O368        C371   1.274       .  A
O368       Co385   2.026       .  S
O369        C370   1.273       .  A
O369       Co384   2.000       .  S
C370       C3159   1.468       .  S
C371       C1707   1.451       .  S
C372       C2939   1.494       .  S
C373       C2191   1.496       .  S
O374        C387   1.275       .  A
O374       Co382   2.026       .  S
O375        C388   1.270       .  A
O375       Co383   1.985       .  S
O376        C389   1.266       .  A
O376       Co384   1.980   1_545  S
O377        C390   1.260   1_545  A
O377       Co385   1.969       .  S
O378        C390   1.272       .  A
O378       Co383   2.053       .  S
O379        C389   1.268       .  A
O379       Co382   2.018       .  S
O380        C387   1.260       .  A
O380       Co385   1.954       .  S
O381        C388   1.265       .  A
O381       Co384   1.967       .  S
Co382       O386   2.107       .  S
Co383       O386   2.104   1_565  S
Co384       O386   2.110   1_565  S
Co385       O386   2.094       .  S
C387       C1673   1.456       .  S
C388       C1651   1.469       .  S
C389       C1729   1.487       .  S
C390       C1739   1.499       .  S
C391        C392   1.424       .  A
C391        C396   1.423       .  A
C391       C1871   1.496       .  S
C392        C393   1.421   1_545  A
C392       C1585   1.499       .  S
C393        C394   1.422       .  A
C393       C1751   1.499       .  S
C394        C395   1.425       .  A
C394       C1629   1.495       .  S
C395        C396   1.424   1_565  A
C395       C1563   1.500       .  S
C396       C1607   1.503       .  S
O397        C405   1.264       .  A
O397       Co417   1.958       .  S
O398        C406   1.266       .  A
O398       Co418   1.964       .  S
O399        C407   1.267       .  A
O399       Co419   2.019       .  S
O400        C408   1.270       .  A
O400       Co420   2.041       .  S
O401        C407   1.264       .  A
O401       Co418   1.977       .  S
O402        C408   1.261       .  A
O402       Co417   1.969       .  S
O403        C406   1.273       .  A
O403       Co420   1.995       .  S
O404        C405   1.276       .  A
O404       Co419   2.027       .  S
C405       C2829   1.457       .  S
C406       C1497   1.463       .  S
C407       C1519   1.487       .  S
C408       C1641   1.493       .  S
O409        C422   1.278       .  A
O409       Co417   2.019       .  S
O410        C423   1.276       .  A
O410       Co418   2.001       .  S
O411        C424   1.264       .  A
O411       Co419   1.989       .  S
O412        C425   1.266       .  A
O412       Co420   1.989       .  S
O413        C425   1.270       .  A
O413       Co418   2.035       .  S
O414        C424   1.265       .  A
O414       Co417   2.015       .  S
O415        C422   1.261       .  A
O415       Co420   1.944       .  S
O416        C423   1.266       .  A
O416       Co419   1.961       .  S
Co417       O421   2.088       .  S
Co418       O421   2.096       .  S
Co419       O421   2.113       .  S
Co420       O421   2.108       .  S
C422       C1663   1.455       .  S
C423       C1475   1.460       .  S
C424       C2917   1.494       .  S
C425       C1541   1.503       .  S
O426        C434   1.260       .  A
O426       Co446   1.943       .  S
O427        C435   1.266       .  A
O427       Co447   1.961       .  S
O428        C436   1.264       .  A
O428       Co448   2.009       .  S
O429        C437   1.270       .  A
O429       Co449   2.039       .  S
O430        C436   1.264   1_545  A
O430       Co447   1.985       .  S
O431        C437   1.264   1_565  A
O431       Co446   1.983       .  S
O432        C435   1.275       .  A
O432       Co449   2.004       .  S
O433        C434   1.278       .  A
O433       Co448   2.026       .  S
C434       C2587   1.454       .  S
C435       C1795   1.463       .  S
C436       C1453   1.490       .  S
C437       C1619   1.501       .  S
O438        C451   1.274       .  A
O438       Co446   1.999       .  S
O439        C452   1.276       .  A
O439       Co447   2.022       .  S
O440        C453   1.261       .  A
O440       Co448   1.974       .  S
O441        C454   1.264       .  A
O441       Co449   1.984       .  S
O442        C454   1.268       .  A
O442       Co447   2.024       .  S
O443        C453   1.270       .  A
O443       Co446   2.047       .  S
O444        C451   1.264       .  A
O444       Co449   1.954   1_565  S
O445        C452   1.265   1_565  A
O445       Co448   1.955       .  S
Co446       O450   2.108       .  S
Co447       O450   2.108   1_545  S
Co448       O450   2.097       .  S
Co449       O450   2.104   1_545  S
C451       C1409   1.455       .  S
C452       C1387   1.454       .  S
C453       C1431   1.498       .  S
C454       C2465   1.496       .  S
C455        C456   1.418       .  A
C455        C460   1.418   1_565  A
C455       C1465   1.488       .  S
C456        C457   1.418   1_556  A
C456       C2697   1.494       .  S
C457        C458   1.418   1_565  A
C457       C3247   1.494       .  S
C458        C459   1.417       .  A
C458       C1717   1.489       .  S
C459        C460   1.416   1_554  A
C459       C1365   1.495       .  S
C460       C1343   1.492       .  S
O461        C469   1.263       .  A
O461       Co481   1.949       .  S
O462        C470   1.264       .  A
O462       Co482   1.950       .  S
O463        C471   1.266       .  A
O463       Co483   2.011       .  S
O464        C472   1.267       .  A
O464       Co484   2.026       .  S
O465        C471   1.264       .  A
O465       Co482   1.986       .  S
O466        C472   1.262       .  A
O466       Co481   1.977       .  S
O467        C470   1.277       .  A
O467       Co484   2.017       .  S
O468        C469   1.278       .  A
O468       Co483   2.027       .  S
C469       C2025   1.462       .  S
C470       C1277   1.455       .  S
C471       C1299   1.489       .  S
C472       C1377   1.491       .  S
O473        C486   1.276       .  A
O473       Co481   2.017       .  S
O474        C487   1.275       .  A
O474       Co482   2.014       .  S
O475        C488   1.262       .  A
O475       Co483   1.979       .  S
O476        C489   1.264       .  A
O476       Co484   1.984       .  S
O477        C489   1.268       .  A
O477       Co482   2.025       .  S
O478        C488   1.267       .  A
O478       Co481   2.022       .  S
O479        C486   1.265       .  A
O479       Co484   1.964       .  S
O480        C487   1.266       .  A
O480       Co483   1.964       .  S
Co481       O485   2.106       .  S
Co482       O485   2.111       .  S
Co483       O485   2.090       .  S
Co484       O485   2.095       .  S
C486       C1685   1.460       .  S
C487       C1255   1.457       .  S
C488       C2169   1.492       .  S
C489       C1321   1.494       .  S
O490        C498   1.270       .  A
O490       Co510   2.007       .  S
O491        C499   1.270       .  A
O491       Co511   1.994       .  S
O492        C500   1.265       .  A
O492       Co512   1.977       .  S
O493        C501   1.269       .  A
O493       Co513   1.984       .  S
O494        C500   1.272       .  A
O494       Co511   2.028       .  S
O495        C501   1.273       .  A
O495       Co510   2.028       .  S
O496        C499   1.265       .  A
O496       Co513   1.972       .  S
O497        C498   1.261       .  A
O497       Co512   1.962       .  S
C498       C2245   1.455       .  S
C499       C1817   1.471       .  S
C500       C1905   1.487       .  S
C501       C2135   1.493       .  S
O502        C515   1.262       .  A
O502       Co510   1.964       .  S
O503        C516   1.263       .  A
O503       Co511   1.965       .  S
O504        C517   1.273       .  A
O504       Co512   2.036       .  S
O505        C518   1.273       .  A
O505       Co513   2.037       .  S
O506        C518   1.267       .  A
O506       Co511   1.976       .  S
O507        C517   1.266       .  A
O507       Co510   1.979       .  S
O508        C515   1.269       .  A
O508       Co513   1.992       .  S
O509        C516   1.270       .  A
O509       Co512   2.004       .  S
Co510       O514   2.099       .  S
Co511       O514   2.095       .  S
Co512       O514   2.101       .  S
Co513       O514   2.111       .  S
C515       C1695   1.458       .  S
C516       C1233   1.457       .  S
C517       C3433   1.493       .  S
C518       C1597   1.494       .  S
C519        C520   1.424       .  A
C519        C524   1.425       .  A
C519       C3621   1.502       .  S
C520        C521   1.425       .  A
C520       C3071   1.502       .  S
C521        C522   1.425       .  A
C521       C1189   1.498       .  S
C522        C523   1.422       .  A
C522       C1223   1.500       .  S
C523        C524   1.423       .  A
C523       C1553   1.503       .  S
C524       C1167   1.493       .  S
O525        C533   1.274       .  A
O525       Co545   2.001       .  S
O526        C534   1.275       .  A
O526       Co546   2.022       .  S
O527        C535   1.269       .  A
O527       Co547   1.993       .  S
O528        C536   1.260       .  A
O528       Co548   1.972       .  S
O529        C535   1.268       .  A
O529       Co546   2.021       .  S
O530        C536   1.269       .  A
O530       Co545   2.042       .  S
O531        C534   1.261       .  A
O531       Co548   1.954       .  S
O532        C533   1.265       .  A
O532       Co547   1.961       .  S
C533       C1487   1.465       .  S
C534       C1267   1.452       .  S
C535       C1113   1.497       .  S
C536       C1123   1.492       .  S
O537        C550   1.261       .  A
O537       Co545   1.949       .  S
O538        C551   1.268       .  A
O538       Co546   1.972       .  S
O539        C552   1.271       .  A
O539       Co547   2.039       .  S
O540        C553   1.268       .  A
O540       Co548   2.022       .  S
O541        C553   1.266       .  A
O541       Co546   1.987       .  S
O542        C552   1.265       .  A
O542       Co545   1.984       .  S
O543        C550   1.276       .  A
O543       Co548   2.028       .  S
O544        C551   1.272       .  A
O544       Co547   1.986       .  S
Co545       O549   2.105       .  S
Co546       O549   2.109       .  S
Co547       O549   2.106       .  S
Co548       O549   2.096       .  S
C550       C1057   1.455       .  S
C551       C1079   1.471       .  S
C552       C1211   1.501       .  S
C553       C1145   1.496       .  S
C554        C555   1.420       .  A
C554        C559   1.419       .  A
C554       C2323   1.494       .  S
C555        C556   1.421       .  A
C555       C3643   1.497       .  S
C556        C557   1.422       .  A
C556       C1013   1.498       .  S
C557        C558   1.421       .  A
C557       C1333   1.496       .  S
C558        C559   1.418       .  A
C558       C1157   1.495       .  S
C559       C1035   1.495       .  S
C560        C561   1.424       .  A
C560        C565   1.422       .  A
C560       C3401   1.492       .  S
C561        C562   1.422       .  A
C561        C969   1.499       .  S
C562        C563   1.423       .  A
C562       C1443   1.505       .  S
C563        C564   1.427       .  A
C563       C2675   1.498       .  S
C564        C565   1.424       .  A
C564        C991   1.498       .  S
C565       C2443   1.508       .  S
O566        C574   1.263       .  A
O566       Co586   1.956   1_565  S
O567        C575   1.262   1_565  A
O567       Co587   1.951       .  S
O568        C576   1.268       .  A
O568       Co588   2.028       .  S
O569        C577   1.269       .  A
O569       Co589   2.025       .  S
O570        C576   1.265       .  A
O570       Co587   1.981       .  S
O571        C577   1.266       .  A
O571       Co586   1.980       .  S
O572        C575   1.275       .  A
O572       Co589   2.022       .  S
O573        C574   1.274       .  A
O573       Co588   2.004       .  S
C574       C3181   1.458       .  S
C575       C1245   1.450       .  S
C576       C2719   1.493       .  S
C577       C1927   1.493       .  S
O578        C591   1.272       .  A
O578       Co586   1.994       .  S
O579        C592   1.274       .  A
O579       Co587   2.002       .  S
O580        C593   1.267   1_565  A
O580       Co588   1.984       .  S
O581        C594   1.265       .  A
O581       Co589   1.987   1_565  S
O582        C594   1.267       .  A
O582       Co587   2.014       .  S
O583        C593   1.273       .  A
O583       Co586   2.039       .  S
O584        C591   1.268       .  A
O584       Co589   1.970       .  S
O585        C592   1.266       .  A
O585       Co588   1.968       .  S
Co586       O590   2.100   1_545  S
Co587       O590   2.097       .  S
Co588       O590   2.103       .  S
Co589       O590   2.109   1_545  S
C591       C3709   1.461       .  S
C592       C3269   1.464       .  S
C593       C3863   1.503       .  S
C594       C3467   1.491       .  S
O595        C603   1.266       .  A
O595       Co615   1.965       .  S
O596        C604   1.265       .  A
O596       Co616   1.968       .  S
O597        C605   1.272       .  A
O597       Co617   2.031       .  S
O598        C606   1.269       .  A
O598       Co618   2.020       .  S
O599        C605   1.267       .  A
O599       Co616   1.986       .  S
O600        C606   1.268       .  A
O600       Co615   1.990       .  S
O601        C604   1.274       .  A
O601       Co618   2.007       .  S
O602        C603   1.272       .  A
O602       Co617   1.995       .  S
C603       C2367   1.463       .  S
C604       C1069   1.463       .  S
C605        C947   1.496       .  S
C606        C925   1.495       .  S
O607        C620   1.272       .  A
O607       Co615   1.994       .  S
O608        C621   1.274       .  A
O608       Co616   2.004       .  S
O609        C622   1.268       .  A
O609       Co617   1.985       .  S
O610        C623   1.268       .  A
O610       Co618   1.986       .  S
O611        C623   1.271       .  A
O611       Co616   2.033       .  S
O612        C622   1.271       .  A
O612       Co615   2.030       .  S
O613        C620   1.265       .  A
O613       Co618   1.969       .  S
O614        C621   1.265       .  A
O614       Co617   1.963       .  S
Co615       O619   2.106       .  S
Co616       O619   2.098       .  S
Co617       O619   2.104       .  S
Co618       O619   2.103       .  S
C620       C1773   1.463       .  S
C621       C2235   1.461       .  S
C622       C2543   1.498       .  S
C623       C1047   1.498       .  S
C624        C625   1.424       .  A
C624        C629   1.428       .  A
C624        C959   1.501       .  S
C625        C626   1.422   1_655  A
C625       C2411   1.504       .  S
C626        C627   1.422       .  A
C626       C3367   1.491       .  S
C627        C628   1.421       .  A
C627       C2873   1.502       .  S
C628        C629   1.425   1_455  A
C628        C915   1.502       .  S
C629       C2301   1.498       .  S
O630        C638   1.275       .  A
O630       Co650   1.998       .  S
O631        C639   1.276       .  A
O631       Co651   2.006       .  S
O632        C640   1.264       .  A
O632       Co652   1.987       .  S
O633        C641   1.263       .  A
O633       Co653   1.984       .  S
O634        C640   1.267       .  A
O634       Co651   2.025       .  S
O635        C641   1.269       .  A
O635       Co650   2.032       .  S
O636        C639   1.265       .  A
O636       Co653   1.957   1_556  S
O637        C638   1.270   1_556  A
O637       Co652   1.974       .  S
C638       C2993   1.469       .  S
C639       C2609   1.459       .  S
C640       C1003   1.495       .  S
C641       C1201   1.499       .  S
O642        C655   1.263       .  A
O642       Co650   1.947       .  S
O643        C656   1.262       .  A
O643       Co651   1.940       .  S
O644        C657   1.266       .  A
O644       Co652   2.019       .  S
O645        C658   1.268       .  A
O645       Co653   2.032       .  S
O646        C658   1.264   1_556  A
O646       Co651   1.988       .  S
O647        C657   1.265   1_554  A
O647       Co650   1.991       .  S
O648        C655   1.278       .  A
O648       Co653   2.016       .  S
O649        C656   1.279       .  A
O649       Co652   2.031       .  S
Co650       O654   2.099   1_554  S
Co651       O654   2.098       .  S
Co652       O654   2.106       .  S
Co653       O654   2.103   1_554  S
C655       C1091   1.456       .  S
C656       C2389   1.453       .  S
C657        C859   1.498       .  S
C658        C881   1.499       .  S
C659        C660   1.425       .  A
C659        C664   1.420       .  A
C659        C849   1.504       .  S
C660        C661   1.428   1_556  A
C660       C2653   1.496       .  S
C661        C662   1.421       .  A
C661        C893   1.499       .  S
C662        C663   1.420       .  A
C662       C1101   1.504       .  S
C663        C664   1.418   1_554  A
C663       C1311   1.488       .  S
C664       C2069   1.497       .  S
O665        C673   1.259       .  A
O665       Co685   1.943   1_556  S
O666        C674   1.268       .  A
O666       Co686   1.974   1_554  S
O667        C675   1.271       .  A
O667       Co687   2.030       .  S
O668        C676   1.270       .  A
O668       Co688   2.033       .  S
O669        C675   1.269       .  A
O669       Co686   1.987       .  S
O670        C676   1.263       .  A
O670       Co685   1.975       .  S
O671        C674   1.271       .  A
O671       Co688   1.985       .  S
O672        C673   1.275       .  A
O672       Co687   2.016       .  S
C673       C3753   1.453       .  S
C674       C1289   1.469       .  S
C675       C2499   1.498       .  S
C676       C1025   1.488       .  S
O677        C690   1.272       .  A
O677       Co685   1.999       .  S
O678        C691   1.273       .  A
O678       Co686   2.004       .  S
O679        C692   1.265   1_556  A
O679       Co687   1.983       .  S
O680        C693   1.268   1_554  A
O680       Co688   1.982       .  S
O681        C693   1.268       .  A
O681       Co686   2.016       .  S
O682        C692   1.271       .  A
O682       Co685   2.037       .  S
O683        C690   1.263       .  A
O683       Co688   1.963       .  S
O684        C691   1.265       .  A
O684       Co687   1.971       .  S
Co685       O689   2.103   1_554  S
Co686       O689   2.107       .  S
Co687       O689   2.095       .  S
Co688       O689   2.100   1_554  S
C690       C3543   1.466       .  S
C691       C1399   1.460       .  S
C692       C3841   1.500       .  S
C693       C1355   1.483       .  S
O694        C702   1.270       .  A
O694       Co714   1.995       .  S
O695        C703   1.273       .  A
O695       Co715   2.012       .  S
O696        C704   1.268       .  A
O696       Co716   1.990       .  S
O697        C705   1.266       .  A
O697       Co717   1.981       .  S
O698        C704   1.271       .  A
O698       Co715   2.027       .  S
O699        C705   1.272       .  A
O699       Co714   2.033       .  S
O700        C703   1.262       .  A
O700       Co717   1.963       .  S
O701        C702   1.264       .  A
O701       Co716   1.966       .  S
C702       C2795   1.465       .  S
C703       C1993   1.460       .  S
C704       C1949   1.497       .  S
C705       C2741   1.496       .  S
O706        C719   1.263       .  A
O706       Co714   1.959       .  S
O707        C720   1.264       .  A
O707       Co715   1.966       .  S
O708        C721   1.272       .  A
O708       Co716   2.035       .  S
O709        C722   1.273       .  A
O709       Co717   2.040       .  S
O710        C722   1.267       .  A
O710       Co715   1.989       .  S
O711        C721   1.267       .  A
O711       Co714   1.983       .  S
O712        C719   1.272       .  A
O712       Co717   2.001       .  S
O713        C720   1.271       .  A
O713       Co716   2.001       .  S
Co714       O718   2.108       .  S
Co715       O718   2.105       .  S
Co716       O718   2.107       .  S
Co717       O718   2.098       .  S
C719       C2631   1.456       .  S
C720       C1827   1.458       .  S
C721        C815   1.496       .  S
C722        C837   1.503       .  S
O723        C731   1.274       .  A
O723       Co743   2.022       .  S
O724        C732   1.272       .  A
O724       Co744   1.994       .  S
O725        C733   1.264       .  A
O725       Co745   1.979       .  S
O726        C734   1.267       .  A
O726       Co746   1.985       .  S
O727        C733   1.271       .  A
O727       Co744   2.037       .  S
O728        C734   1.267       .  A
O728       Co743   2.014       .  S
O729        C732   1.264       .  A
O729       Co746   1.961       .  S
O730        C731   1.261       .  A
O730       Co745   1.952       .  S
C731       C3577   1.451       .  S
C732       C1421   1.455       .  S
C733       C1575   1.494       .  S
C734       C3423   1.486       .  S
O735        C748   1.265       .  A
O735       Co743   1.969       .  S
O736        C749   1.264       .  A
O736       Co744   1.961       .  S
O737        C750   1.271       .  A
O737       Co745   2.034       .  S
O738        C751   1.271       .  A
O738       Co746   2.029       .  S
O739        C751   1.266       .  A
O739       Co744   1.981       .  S
O740        C750   1.264       .  A
O740       Co743   1.974       .  S
O741        C748   1.273       .  A
O741       Co746   2.002       .  S
O742        C749   1.272       .  A
O742       Co745   1.996       .  S
Co743       O747   2.100       .  S
Co744       O747   2.105       .  S
Co745       O747   2.096       .  S
Co746       O747   2.107       .  S
C748       C3335   1.464       .  S
C749       C1509   1.459       .  S
C750       C1179   1.492       .  S
C751        C981   1.494       .  S
O752        C760   1.262       .  A
O752       Co772   1.944       .  S
O753        C761   1.265       .  A
O753       Co773   1.957       .  S
O754        C762   1.264       .  A
O754       Co774   2.011       .  S
O755        C763   1.270       .  A
O755       Co775   2.051       .  S
O756        C762   1.267       .  A
O756       Co773   1.991       .  S
O757        C763   1.259       .  A
O757       Co772   1.974       .  S
O758        C761   1.276       .  A
O758       Co775   2.004       .  S
O759        C760   1.278       .  A
O759       Co774   2.028       .  S
C760       C3027   1.447       .  S
C761       C2267   1.458       .  S
C762        C805   1.494       .  S
C763        C903   1.502       .  S
O764        C777   1.278       .  A
O764       Co772   2.025       .  S
O765        C778   1.276       .  A
O765       Co773   2.002       .  S
O766        C779   1.266       .  A
O766       Co774   1.992       .  S
O767        C780   1.263       .  A
O767       Co775   1.984       .  S
O768        C780   1.269       .  A
O768       Co773   2.033       .  S
O769        C779   1.264       .  A
O769       Co772   2.010       .  S
O770        C777   1.260       .  A
O770       Co775   1.940       .  S
O771        C778   1.271       .  A
O771       Co774   1.971       .  S
Co772       O776   2.089       .  S
Co773       O776   2.100       .  S
Co774       O776   2.111       .  S
Co775       O776   2.103       .  S
C777       C2785   1.451       .  S
C778       C2003   1.468       .  S
C779       C2949   1.494       .  S
C780       C2125   1.498       .  S
C781        C782   1.420       .  A
C781        C786   1.423       .  A
C781        C827   1.497       .  S
C782        C783   1.418       .  A
C782       C2851   1.496       .  S
C783        C784   1.421       .  A
C783       C1531   1.495       .  S
C784        C785   1.422       .  A
C784       C1135   1.500       .  S
C785        C786   1.422       .  A
C785        C937   1.495       .  S
C786       C1849   1.496       .  S
C787        C788   1.418       .  A
C787        C792   1.417   1_455  A
C787        C793   1.491       .  S
C788        C789   1.420   1_554  A
C788       C2059   1.495       .  S
C789        C790   1.424   1_455  A
C789       C3797   1.493       .  S
C790        C791   1.423       .  A
C790       C2433   1.497       .  S
C791        C792   1.417   1_556  A
C791        C871   1.497       .  S
C792       C3049   1.494       .  S
C793        C794   1.399       .  A
C793        C798   1.400       .  A
C794        C795   1.397       .  A
C794        H807   1.084   1_455  S
C795        C796   1.413       .  A
C795        H808   1.077       .  S
C796        C802   1.437       .  A
C796        C797   1.427       .  A
C797        C799   1.399       .  A
C797        C798   1.414       .  A
C798        H809   1.084       .  S
C799        C800   1.393       .  A
C799        H810   1.084       .  S
C800        C801   1.402       .  A
C800        H811   1.084       .  S
C801        C802   1.420       .  A
C801        C806   1.408       .  A
C802        C803   1.419       .  A
C803        C804   1.404       .  A
C803        H812   1.077       .  S
C804        C805   1.400       .  A
C804        H813   1.083       .  S
C805        C806   1.408       .  A
C806        H814   1.084       .  S
C815        C816   1.402       .  A
C815        C820   1.407       .  A
C816        C817   1.404       .  A
C816        H829   1.083       .  S
C817        C818   1.418       .  A
C817        H830   1.077       .  S
C818        C824   1.439       .  A
C818        C819   1.421       .  A
C819        C821   1.402       .  A
C819        C820   1.413       .  A
C820        H831   1.084       .  S
C821        C822   1.395       .  A
C821        H832   1.084       .  S
C822        C823   1.400       .  A
C822        H833   1.084       .  S
C823        C824   1.426       .  A
C823        C828   1.416       .  A
C824        C825   1.414       .  A
C825        C826   1.399       .  A
C825        H834   1.077       .  S
C826        C827   1.401       .  A
C826        H835   1.084       .  S
C827        C828   1.402       .  A
C828        H836   1.084       .  S
C837        C838   1.407       .  A
C837        C842   1.407       .  A
C838        C839   1.402       .  A
C838        H851   1.083       .  S
C839        C840   1.414       .  A
C839        H852   1.078       .  S
C840        C846   1.442       .  A
C840        C841   1.425       .  A
C841        C843   1.401       .  A
C841        C842   1.418       .  A
C842        H853   1.084       .  S
C843        C844   1.395       .  A
C843        H854   1.084       .  S
C844        C845   1.401       .  A
C844        H855   1.084       .  S
C845        C846   1.422       .  A
C845        C850   1.413       .  A
C846        C847   1.419       .  A
C847        C848   1.405       .  A
C847        H856   1.078       .  S
C848        C849   1.401       .  A
C848        H857   1.083       .  S
C849        C850   1.405       .  A
C850        H858   1.085       .  S
C859        C860   1.406       .  A
C859        C864   1.405   1_556  A
C860        C861   1.399       .  A
C860        H873   1.083       .  S
C861        C862   1.413       .  A
C861        H874   1.078       .  S
C862        C868   1.439       .  A
C862        C863   1.425   1_556  A
C863        C865   1.400       .  A
C863        C864   1.416       .  A
C864        H875   1.084       .  S
C865        C866   1.394       .  A
C865        H876   1.084       .  S
C866        C867   1.402       .  A
C866        H877   1.084       .  S
C867        C868   1.422   1_554  A
C867        C872   1.412       .  A
C868        C869   1.420       .  A
C869        C870   1.404       .  A
C869        H878   1.078       .  S
C870        C871   1.398       .  A
C870        H879   1.083       .  S
C871        C872   1.404   1_556  A
C872        H880   1.084       .  S
C881        C882   1.404       .  A
C881        C886   1.407       .  A
C882        C883   1.407       .  A
C882        H895   1.083   1_554  S
C883        C884   1.419       .  A
C883        H896   1.077       .  S
C884        C890   1.441       .  A
C884        C885   1.421       .  A
C885        C887   1.401       .  A
C885        C886   1.410       .  A
C886        H897   1.084       .  S
C887        C888   1.392       .  A
C887        H898   1.084       .  S
C888        C889   1.399       .  A
C888        H899   1.084       .  S
C889        C890   1.426       .  A
C889        C894   1.414       .  A
C890        C891   1.415       .  A
C891        C892   1.402       .  A
C891        H900   1.077       .  S
C892        C893   1.403       .  A
C892        H901   1.083       .  S
C893        C894   1.401       .  A
C894        H902   1.084       .  S
C903        C904   1.404       .  A
C903        C908   1.408       .  A
C904        C905   1.403       .  A
C904        H917   1.083       .  S
C905        C906   1.416       .  A
C905        H918   1.077       .  S
C906        C912   1.441       .  A
C906        C907   1.423       .  A
C907        C909   1.402       .  A
C907        C908   1.417       .  A
C908        H919   1.084       .  S
C909        C910   1.395       .  A
C909        H920   1.084       .  S
C910        C911   1.401       .  A
C910        H921   1.084       .  S
C911        C912   1.424       .  A
C911        C916   1.416       .  A
C912        C913   1.416       .  A
C913        C914   1.402       .  A
C913        H922   1.077       .  S
C914        C915   1.401       .  A
C914        H923   1.083   1_455  S
C915        C916   1.404       .  A
C916        H924   1.083       .  S
C925        C926   1.405       .  A
C925        C930   1.404       .  A
C926        C927   1.400       .  A
C926        H939   1.083       .  S
C927        C928   1.413       .  A
C927        H940   1.077       .  S
C928        C934   1.439       .  A
C928        C929   1.425       .  A
C929        C931   1.400       .  A
C929        C930   1.415       .  A
C930        H941   1.084       .  S
C931        C932   1.393       .  A
C931        H942   1.084       .  S
C932        C933   1.401       .  A
C932        H943   1.084       .  S
C933        C934   1.422       .  A
C933        C938   1.409       .  A
C934        C935   1.420       .  A
C935        C936   1.404       .  A
C935        H944   1.078       .  S
C936        C937   1.398       .  A
C936        H945   1.083       .  S
C937        C938   1.403       .  A
C938        H946   1.085       .  S
C947        C948   1.405       .  A
C947        C952   1.404       .  A
C948        C949   1.401       .  A
C948        H961   1.083       .  S
C949        C950   1.414       .  A
C949        H962   1.078       .  S
C950        C956   1.439       .  A
C950        C951   1.425       .  A
C951        C953   1.400       .  A
C951        C952   1.414       .  A
C952        H963   1.084       .  S
C953        C954   1.393       .  A
C953        H964   1.084       .  S
C954        C955   1.401       .  A
C954        H965   1.084       .  S
C955        C956   1.422       .  A
C955        C960   1.410       .  A
C956        C957   1.420       .  A
C957        C958   1.405       .  A
C957        H966   1.078       .  S
C958        C959   1.400       .  A
C958        H967   1.083       .  S
C959        C960   1.404       .  A
C960        H968   1.084       .  S
C969        C970   1.400       .  A
C969        C974   1.402       .  A
C970        C971   1.405       .  A
C970        H983   1.083       .  S
C971        C972   1.420       .  A
C971        H984   1.077       .  S
C972        C978   1.440       .  A
C972        C973   1.423       .  A
C973        C975   1.400       .  A
C973        C974   1.409       .  A
C974        H985   1.084       .  S
C975        C976   1.392       .  A
C975        H986   1.084       .  S
C976        C977   1.400       .  A
C976        H987   1.084       .  S
C977        C978   1.425       .  A
C977        C982   1.414       .  A
C978        C979   1.415       .  A
C979        C980   1.403       .  A
C979        H988   1.077       .  S
C980        C981   1.404       .  A
C980        H989   1.084       .  S
C981        C982   1.404       .  A
C982        H990   1.084       .  S
C991        C992   1.402       .  A
C991        C996   1.402       .  A
C992        C993   1.400       .  A
C992       H1005   1.084       .  S
C993        C994   1.414       .  A
C993       H1006   1.078       .  S
C994       C1000   1.438       .  A
C994        C995   1.426       .  A
C995        C997   1.399       .  A
C995        C996   1.413       .  A
C996       H1007   1.084       .  S
C997        C998   1.392       .  A
C997       H1008   1.084       .  S
C998        C999   1.401       .  A
C998       H1009   1.084       .  S
C999       C1000   1.421       .  A
C999       C1004   1.409       .  A
C1000      C1001   1.419       .  A
C1001      C1002   1.405       .  A
C1001      H1010   1.078       .  S
C1002      C1003   1.402       .  A
C1002      H1011   1.083       .  S
C1003      C1004   1.407       .  A
C1004      H1012   1.084       .  S
C1013      C1014   1.401       .  A
C1013      C1018   1.401       .  A
C1014      C1015   1.406       .  A
C1014      H1027   1.083       .  S
C1015      C1016   1.420       .  A
C1015      H1028   1.078       .  S
C1016      C1022   1.439       .  A
C1016      C1017   1.423       .  A
C1017      C1019   1.399       .  A
C1017      C1018   1.406       .  A
C1018      H1029   1.085       .  S
C1019      C1020   1.390       .  A
C1019      H1030   1.084       .  S
C1020      C1021   1.399       .  A
C1020      H1031   1.084       .  S
C1021      C1022   1.425       .  A
C1021      C1026   1.409       .  A
C1022      C1023   1.417       .  A
C1023      C1024   1.404       .  A
C1023      H1032   1.078       .  S
C1024      C1025   1.402       .  A
C1024      H1033   1.083       .  S
C1025      C1026   1.402       .  A
C1026      H1034   1.085       .  S
C1035      C1036   1.399       .  A
C1035      C1040   1.401       .  A
C1036      C1037   1.406       .  A
C1036      H1049   1.083       .  S
C1037      C1038   1.421       .  A
C1037      H1050   1.077       .  S
C1038      C1044   1.440       .  A
C1038      C1039   1.422       .  A
C1039      C1041   1.400       .  A
C1039      C1040   1.408       .  A
C1040      H1051   1.085       .  S
C1041      C1042   1.392       .  A
C1041      H1052   1.084       .  S
C1042      C1043   1.400       .  A
C1042      H1053   1.084       .  S
C1043      C1044   1.425       .  A
C1043      C1048   1.414       .  A
C1044      C1045   1.414       .  A
C1045      C1046   1.401       .  A
C1045      H1054   1.077       .  S
C1046      C1047   1.407       .  A
C1046      H1055   1.083       .  S
C1047      C1048   1.404       .  A
C1048      H1056   1.084       .  S
C1057      C1058   1.397       .  A
C1057      C1062   1.391       .  A
C1058      C1059   1.394       .  A
C1058      H1071   1.084       .  S
C1059      C1060   1.413       .  A
C1059      H1072   1.078       .  S
C1060      C1066   1.426       .  A
C1060      C1061   1.426       .  A
C1061      C1063   1.396       .  A
C1061      C1062   1.399       .  A
C1062      H1073   1.083       .  S
C1063      C1064   1.384       .  A
C1063      H1074   1.085       .  S
C1064      C1065   1.399       .  A
C1064      H1075   1.085       .  S
C1065      C1066   1.420       .  A
C1065      C1070   1.391       .  A
C1066      C1067   1.421       .  A
C1067      C1068   1.402       .  A
C1067      H1076   1.077       .  S
C1068      C1069   1.395       .  A
C1068      H1077   1.083       .  S
C1069      C1070   1.398       .  A
C1070      H1078   1.086       .  S
C1079      C1080   1.399       .  A
C1079      C1084   1.399       .  A
C1080      C1081   1.402       .  A
C1080      H1093   1.083       .  S
C1081      C1082   1.419       .  A
C1081      H1094   1.077       .  S
C1082      C1088   1.424       .  A
C1082      C1083   1.418       .  A
C1083      C1085   1.397       .  A
C1083      C1084   1.384       .  A
C1084      H1095   1.085       .  S
C1085      C1086   1.377       .  A
C1085      H1096   1.084       .  S
C1086      C1087   1.394       .  A
C1086      H1097   1.085       .  S
C1087      C1088   1.424       .  A
C1087      C1092   1.387       .  A
C1088      C1089   1.415       .  A
C1089      C1090   1.397       .  A
C1089      H1098   1.078       .  S
C1090      C1091   1.398       .  A
C1090      H1099   1.083       .  S
C1091      C1092   1.390       .  A
C1092      H1100   1.084       .  S
C1101      C1102   1.401       .  A
C1101      C1106   1.404       .  A
C1102      C1103   1.407       .  A
C1102      H1115   1.083       .  S
C1103      C1104   1.420       .  A
C1103      H1116   1.078       .  S
C1104      C1110   1.442       .  A
C1104      C1105   1.422       .  A
C1105      C1107   1.401       .  A
C1105      C1106   1.412       .  A
C1106      H1117   1.085       .  S
C1107      C1108   1.394       .  A
C1107      H1118   1.084       .  S
C1108      C1109   1.400       .  A
C1108      H1119   1.084       .  S
C1109      C1110   1.426       .  A
C1109      C1114   1.417       .  A
C1110      C1111   1.414       .  A
C1111      C1112   1.402       .  A
C1111      H1120   1.078       .  S
C1112      C1113   1.405       .  A
C1112      H1121   1.083       .  S
C1113      C1114   1.404       .  A
C1114      H1122   1.084       .  S
C1123      C1124   1.401       .  A
C1123      C1128   1.407       .  A
C1124      C1125   1.400       .  A
C1124      H1137   1.083       .  S
C1125      C1126   1.416       .  A
C1125      H1138   1.078       .  S
C1126      C1132   1.436       .  A
C1126      C1127   1.422       .  A
C1127      C1129   1.402       .  A
C1127      C1128   1.413       .  A
C1128      H1139   1.085       .  S
C1129      C1130   1.395       .  A
C1129      H1140   1.084       .  S
C1130      C1131   1.401       .  A
C1130      H1141   1.084       .  S
C1131      C1132   1.424       .  A
C1131      C1136   1.414       .  A
C1132      C1133   1.414       .  A
C1133      C1134   1.397       .  A
C1133      H1142   1.078       .  S
C1134      C1135   1.401       .  A
C1134      H1143   1.084       .  S
C1135      C1136   1.405       .  A
C1136      H1144   1.084       .  S
C1145      C1146   1.406       .  A
C1145      C1150   1.403       .  A
C1146      C1147   1.402       .  A
C1146      H1159   1.083       .  S
C1147      C1148   1.414       .  A
C1147      H1160   1.078       .  S
C1148      C1154   1.439       .  A
C1148      C1149   1.425       .  A
C1149      C1151   1.399       .  A
C1149      C1150   1.413       .  A
C1150      H1161   1.084       .  S
C1151      C1152   1.392       .  A
C1151      H1162   1.084       .  S
C1152      C1153   1.400       .  A
C1152      H1163   1.084       .  S
C1153      C1154   1.422       .  A
C1153      C1158   1.408       .  A
C1154      C1155   1.420       .  A
C1155      C1156   1.406       .  A
C1155      H1164   1.078       .  S
C1156      C1157   1.399       .  A
C1156      H1165   1.083       .  S
C1157      C1158   1.401       .  A
C1158      H1166   1.085       .  S
C1167      C1168   1.398       .  A
C1167      C1172   1.401       .  A
C1168      C1169   1.404       .  A
C1168      H1181   1.083       .  S
C1169      C1170   1.419       .  A
C1169      H1182   1.078       .  S
C1170      C1176   1.438       .  A
C1170      C1171   1.423       .  A
C1171      C1173   1.400       .  A
C1171      C1172   1.408       .  A
C1172      H1183   1.085       .  S
C1173      C1174   1.391       .  A
C1173      H1184   1.084       .  S
C1174      C1175   1.400       .  A
C1174      H1185   1.084       .  S
C1175      C1176   1.424       .  A
C1175      C1180   1.411       .  A
C1176      C1177   1.415       .  A
C1177      C1178   1.401       .  A
C1177      H1186   1.078       .  S
C1178      C1179   1.404       .  A
C1178      H1187   1.083       .  S
C1179      C1180   1.404       .  A
C1180      H1188   1.084       .  S
C1189      C1190   1.402       .  A
C1189      C1194   1.401       .  A
C1190      C1191   1.403       .  A
C1190      H1203   1.083       .  S
C1191      C1192   1.416       .  A
C1191      H1204   1.077       .  S
C1192      C1198   1.441       .  A
C1192      C1193   1.426       .  A
C1193      C1195   1.399       .  A
C1193      C1194   1.413       .  A
C1194      H1205   1.085       .  S
C1195      C1196   1.392       .  A
C1195      H1206   1.084       .  S
C1196      C1197   1.401       .  A
C1196      H1207   1.084       .  S
C1197      C1198   1.421       .  A
C1197      C1202   1.410       .  A
C1198      C1199   1.419       .  A
C1199      C1200   1.408       .  A
C1199      H1208   1.077       .  S
C1200      C1201   1.404       .  A
C1200      H1209   1.083       .  S
C1201      C1202   1.406       .  A
C1202      H1210   1.084       .  S
C1211      C1212   1.406       .  A
C1211      C1216   1.405       .  A
C1212      C1213   1.407       .  A
C1212      H1225   1.083       .  S
C1213      C1214   1.416       .  A
C1213      H1226   1.078       .  S
C1214      C1220   1.444       .  A
C1214      C1215   1.425       .  A
C1215      C1217   1.400       .  A
C1215      C1216   1.415       .  A
C1216      H1227   1.084       .  S
C1217      C1218   1.392       .  A
C1217      H1228   1.084       .  S
C1218      C1219   1.400       .  A
C1218      H1229   1.084       .  S
C1219      C1220   1.423       .  A
C1219      C1224   1.409       .  A
C1220      C1221   1.421       .  A
C1221      C1222   1.410       .  A
C1221      H1230   1.077       .  S
C1222      C1223   1.401       .  A
C1222      H1231   1.083       .  S
C1223      C1224   1.401       .  A
C1224      H1232   1.085       .  S
C1233      C1234   1.394       .  A
C1233      C1238   1.397       .  A
C1234      C1235   1.397       .  A
C1234      H1247   1.084       .  S
C1235      C1236   1.419       .  A
C1235      H1248   1.077       .  S
C1236      C1242   1.422       .  A
C1236      C1237   1.420       .  A
C1237      C1239   1.399       .  A
C1237      C1238   1.392       .  A
C1238      H1249   1.084       .  S
C1239      C1240   1.385       .  A
C1239      H1250   1.084       .  S
C1240      C1241   1.397       .  A
C1240      H1251   1.084       .  S
C1241      C1242   1.425       .  A
C1241      C1246   1.397       .  A
C1242      C1243   1.414       .  A
C1243      C1244   1.391       .  A
C1243      H1252   1.077       .  S
C1244      C1245   1.394       .  A
C1244      H1253   1.084   1_545  S
C1245      C1246   1.390       .  A
C1246      H1254   1.081       .  S
C1255      C1256   1.393       .  A
C1255      C1260   1.397       .  A
C1256      C1257   1.397       .  A
C1256      H1269   1.084       .  S
C1257      C1258   1.420       .  A
C1257      H1270   1.077       .  S
C1258      C1264   1.424       .  A
C1258      C1259   1.421       .  A
C1259      C1261   1.399       .  A
C1259      C1260   1.394       .  A
C1260      H1271   1.086       .  S
C1261      C1262   1.386       .  A
C1261      H1272   1.084       .  S
C1262      C1263   1.397       .  A
C1262      H1273   1.084       .  S
C1263      C1264   1.425       .  A
C1263      C1268   1.399       .  A
C1264      C1265   1.413       .  A
C1265      C1266   1.391       .  A
C1265      H1274   1.077       .  S
C1266      C1267   1.395       .  A
C1266      H1275   1.084       .  S
C1267      C1268   1.392       .  A
C1268      H1276   1.081       .  S
C1277      C1278   1.398       .  A
C1277      C1282   1.389       .  A
C1278      C1279   1.398       .  A
C1278      H1291   1.083       .  S
C1279      C1280   1.415       .  A
C1279      H1292   1.078       .  S
C1280      C1286   1.424       .  A
C1280      C1281   1.424       .  A
C1281      C1283   1.394       .  A
C1281      C1282   1.389       .  A
C1282      H1293   1.081       .  S
C1283      C1284   1.378       .  A
C1283      H1294   1.085       .  S
C1284      C1285   1.397       .  A
C1284      H1295   1.084       .  S
C1285      C1286   1.419       .  A
C1285      C1290   1.384       .  A
C1286      C1287   1.420       .  A
C1287      C1288   1.403       .  A
C1287      H1296   1.078       .  S
C1288      C1289   1.398       .  A
C1288      H1297   1.083       .  S
C1289      C1290   1.400       .  A
C1290      H1298   1.085       .  S
C1299      C1300   1.405       .  A
C1299      C1304   1.403       .  A
C1300      C1301   1.394       .  A
C1300      H1313   1.083       .  S
C1301      C1302   1.410       .  A
C1301      H1314   1.078       .  S
C1302      C1308   1.433       .  A
C1302      C1303   1.425       .  A
C1303      C1305   1.400       .  A
C1303      C1304   1.412       .  A
C1304      H1315   1.084       .  S
C1305      C1306   1.392       .  A
C1305      H1316   1.084       .  S
C1306      C1307   1.401       .  A
C1306      H1317   1.084   1_554  S
C1307      C1308   1.420       .  A
C1307      C1312   1.405       .  A
C1308      C1309   1.420       .  A
C1309      C1310   1.401       .  A
C1309      H1318   1.077       .  S
C1310      C1311   1.397       .  A
C1310      H1319   1.083       .  S
C1311      C1312   1.401       .  A
C1312      H1320   1.085   1_554  S
C1321      C1322   1.402       .  A
C1321      C1326   1.407       .  A
C1322      C1323   1.404       .  A
C1322      H1335   1.083       .  S
C1323      C1324   1.419       .  A
C1323      H1336   1.077       .  S
C1324      C1330   1.438       .  A
C1324      C1325   1.421       .  A
C1325      C1327   1.401       .  A
C1325      C1326   1.409       .  A
C1326      H1337   1.084       .  S
C1327      C1328   1.392       .  A
C1327      H1338   1.084       .  S
C1328      C1329   1.399       .  A
C1328      H1339   1.084       .  S
C1329      C1330   1.426       .  A
C1329      C1334   1.413       .  A
C1330      C1331   1.414       .  A
C1331      C1332   1.399       .  A
C1331      H1340   1.077       .  S
C1332      C1333   1.401       .  A
C1332      H1341   1.083       .  S
C1333      C1334   1.401       .  A
C1334      H1342   1.084       .  S
C1343      C1344   1.400       .  A
C1343      C1348   1.399   1_556  A
C1344      C1345   1.405       .  A
C1344      H1357   1.083       .  S
C1345      C1346   1.420       .  A
C1345      H1358   1.077       .  S
C1346      C1352   1.436       .  A
C1346      C1347   1.422   1_556  A
C1347      C1349   1.399       .  A
C1347      C1348   1.403       .  A
C1348      H1359   1.085       .  S
C1349      C1350   1.389       .  A
C1349      H1360   1.084       .  S
C1350      C1351   1.398       .  A
C1350      H1361   1.084       .  S
C1351      C1352   1.425   1_554  A
C1351      C1356   1.408       .  A
C1352      C1353   1.414       .  A
C1353      C1354   1.400       .  A
C1353      H1362   1.077       .  S
C1354      C1355   1.403       .  A
C1354      H1363   1.084       .  S
C1355      C1356   1.399   1_556  A
C1356      H1364   1.085       .  S
C1365      C1366   1.400       .  A
C1365      C1370   1.401       .  A
C1366      C1367   1.398       .  A
C1366      H1379   1.084   1_554  S
C1367      C1368   1.414       .  A
C1367      H1380   1.078       .  S
C1368      C1374   1.435       .  A
C1368      C1369   1.425       .  A
C1369      C1371   1.399       .  A
C1369      C1370   1.411       .  A
C1370      H1381   1.084       .  S
C1371      C1372   1.392       .  A
C1371      H1382   1.084       .  S
C1372      C1373   1.401       .  A
C1372      H1383   1.084       .  S
C1373      C1374   1.421       .  A
C1373      C1378   1.407       .  A
C1374      C1375   1.418       .  A
C1375      C1376   1.402       .  A
C1375      H1384   1.078       .  S
C1376      C1377   1.401       .  A
C1376      H1385   1.083       .  S
C1377      C1378   1.406       .  A
C1378      H1386   1.084       .  S
C1387      C1388   1.398       .  A
C1387      C1392   1.388       .  A
C1388      C1389   1.398       .  A
C1388      H1401   1.083   1_545  S
C1389      C1390   1.415       .  A
C1389      H1402   1.077   1_545  S
C1390      C1396   1.426       .  A
C1390      C1391   1.425       .  A
C1391      C1393   1.395       .  A
C1391      C1392   1.394       .  A
C1392      H1403   1.079       .  S
C1393      C1394   1.381       .  A
C1393      H1404   1.084       .  S
C1394      C1395   1.397       .  A
C1394      H1405   1.085       .  S
C1395      C1396   1.421       .  A
C1395      C1400   1.388       .  A
C1396      C1397   1.421       .  A
C1397      C1398   1.402       .  A
C1397      H1406   1.077       .  S
C1398      C1399   1.396       .  A
C1398      H1407   1.083       .  S
C1399      C1400   1.394       .  A
C1400      H1408   1.085       .  S
C1409      C1410   1.398       .  A
C1409      C1414   1.401       .  A
C1410      C1411   1.379       .  A
C1410      H1423   1.084       .  S
C1411      C1412   1.407       .  A
C1411      H1424   1.080       .  S
C1412      C1418   1.407       .  A
C1412      C1413   1.417       .  A
C1413      C1415   1.402       .  A
C1413      C1414   1.402       .  A
C1414      H1425   1.084       .  S
C1415      C1416   1.396       .  A
C1415      H1426   1.084       .  S
C1416      C1417   1.402       .  A
C1416      H1427   1.084       .  S
C1417      C1418   1.418       .  A
C1417      C1422   1.403       .  A
C1418      C1419   1.407       .  A
C1419      C1420   1.379       .  A
C1419      H1428   1.080       .  S
C1420      C1421   1.397       .  A
C1420      H1429   1.084       .  S
C1421      C1422   1.401       .  A
C1422      H1430   1.084       .  S
C1431      C1432   1.403       .  A
C1431      C1436   1.408       .  A
C1432      C1433   1.401       .  A
C1432      H1445   1.083       .  S
C1433      C1434   1.416       .  A
C1433      H1446   1.077       .  S
C1434      C1440   1.440       .  A
C1434      C1435   1.423       .  A
C1435      C1437   1.402       .  A
C1435      C1436   1.416       .  A
C1436      H1447   1.084       .  S
C1437      C1438   1.396       .  A
C1437      H1448   1.084       .  S
C1438      C1439   1.401       .  A
C1438      H1449   1.084       .  S
C1439      C1440   1.425       .  A
C1439      C1444   1.417       .  A
C1440      C1441   1.415       .  A
C1441      C1442   1.399       .  A
C1441      H1450   1.077       .  S
C1442      C1443   1.402       .  A
C1442      H1451   1.084       .  S
C1443      C1444   1.406       .  A
C1444      H1452   1.084       .  S
C1453      C1454   1.405       .  A
C1453      C1458   1.402       .  A
C1454      C1455   1.395       .  A
C1454      H1467   1.083       .  S
C1455      C1456   1.411       .  A
C1455      H1468   1.077       .  S
C1456      C1462   1.434       .  A
C1456      C1457   1.425       .  A
C1457      C1459   1.399   1_565  A
C1457      C1458   1.412       .  A
C1458      H1469   1.084   1_565  S
C1459      C1460   1.392       .  A
C1459      H1470   1.084       .  S
C1460      C1461   1.400   1_545  A
C1460      H1471   1.084       .  S
C1461      C1462   1.421       .  A
C1461      C1466   1.405       .  A
C1462      C1463   1.420       .  A
C1463      C1464   1.401       .  A
C1463      H1472   1.076       .  S
C1464      C1465   1.397       .  A
C1464      H1473   1.083       .  S
C1465      C1466   1.400       .  A
C1466      H1474   1.085   1_565  S
C1475      C1476   1.398       .  A
C1475      C1480   1.393       .  A
C1476      C1477   1.400       .  A
C1476      H1489   1.083       .  S
C1477      C1478   1.418       .  A
C1477      H1490   1.078       .  S
C1478      C1484   1.424       .  A
C1478      C1479   1.422       .  A
C1479      C1481   1.395       .  A
C1479      C1480   1.386       .  A
C1480      H1491   1.085       .  S
C1481      C1482   1.378       .  A
C1481      H1492   1.085       .  S
C1482      C1483   1.395       .  A
C1482      H1493   1.085       .  S
C1483      C1484   1.422       .  A
C1483      C1488   1.387       .  A
C1484      C1485   1.417       .  A
C1485      C1486   1.400       .  A
C1485      H1494   1.078       .  S
C1486      C1487   1.399       .  A
C1486      H1495   1.083       .  S
C1487      C1488   1.395       .  A
C1488      H1496   1.086       .  S
C1497      C1498   1.397       .  A
C1497      C1502   1.396       .  A
C1498      C1499   1.399       .  A
C1498      H1511   1.083       .  S
C1499      C1500   1.417       .  A
C1499      H1512   1.078       .  S
C1500      C1506   1.423       .  A
C1500      C1501   1.421       .  A
C1501      C1503   1.396       .  A
C1501      C1502   1.386       .  A
C1502      H1513   1.086       .  S
C1503      C1504   1.379       .  A
C1503      H1514   1.084       .  S
C1504      C1505   1.395       .  A
C1504      H1515   1.084       .  S
C1505      C1506   1.422       .  A
C1505      C1510   1.387       .  A
C1506      C1507   1.417       .  A
C1507      C1508   1.398       .  A
C1507      H1516   1.078       .  S
C1508      C1509   1.397       .  A
C1508      H1517   1.083       .  S
C1509      C1510   1.394       .  A
C1510      H1518   1.085       .  S
C1519      C1520   1.400       .  A
C1519      C1524   1.405       .  A
C1520      C1521   1.401       .  A
C1520      H1533   1.083       .  S
C1521      C1522   1.417       .  A
C1521      H1534   1.078       .  S
C1522      C1528   1.435       .  A
C1522      C1523   1.421       .  A
C1523      C1525   1.401       .  A
C1523      C1524   1.409       .  A
C1524      H1535   1.085       .  S
C1525      C1526   1.393       .  A
C1525      H1536   1.084       .  S
C1526      C1527   1.400       .  A
C1526      H1537   1.084       .  S
C1527      C1528   1.425       .  A
C1527      C1532   1.413       .  A
C1528      C1529   1.414       .  A
C1529      C1530   1.397       .  A
C1529      H1538   1.077       .  S
C1530      C1531   1.400       .  A
C1530      H1539   1.084       .  S
C1531      C1532   1.402       .  A
C1532      H1540   1.084       .  S
C1541      C1542   1.407       .  A
C1541      C1546   1.405       .  A
C1542      C1543   1.405       .  A
C1542      H1555   1.083       .  S
C1543      C1544   1.415       .  A
C1543      H1556   1.078       .  S
C1544      C1550   1.444       .  A
C1544      C1545   1.425       .  A
C1545      C1547   1.400       .  A
C1545      C1546   1.416       .  A
C1546      H1557   1.084       .  S
C1547      C1548   1.393       .  A
C1547      H1558   1.084       .  S
C1548      C1549   1.401       .  A
C1548      H1559   1.084       .  S
C1549      C1550   1.423       .  A
C1549      C1554   1.412       .  A
C1550      C1551   1.421       .  A
C1551      C1552   1.409       .  A
C1551      H1560   1.078       .  S
C1552      C1553   1.401       .  A
C1552      H1561   1.083       .  S
C1553      C1554   1.403       .  A
C1554      H1562   1.085       .  S
C1563      C1564   1.402       .  A
C1563      C1568   1.403       .  A
C1564      C1565   1.400       .  A
C1564      H1577   1.083   1_565  S
C1565      C1566   1.414       .  A
C1565      H1578   1.078       .  S
C1566      C1572   1.438       .  A
C1566      C1567   1.425       .  A
C1567      C1569   1.399       .  A
C1567      C1568   1.413       .  A
C1568      H1579   1.084       .  S
C1569      C1570   1.392       .  A
C1569      H1580   1.084       .  S
C1570      C1571   1.401       .  A
C1570      H1581   1.084       .  S
C1571      C1572   1.422       .  A
C1571      C1576   1.410       .  A
C1572      C1573   1.418       .  A
C1573      C1574   1.404       .  A
C1573      H1582   1.078       .  S
C1574      C1575   1.402       .  A
C1574      H1583   1.083       .  S
C1575      C1576   1.406       .  A
C1576      H1584   1.084       .  S
C1585      C1586   1.401       .  A
C1585      C1590   1.404       .  A
C1586      C1587   1.399       .  A
C1586      H1599   1.084       .  S
C1587      C1588   1.415       .  A
C1587      H1600   1.077       .  S
C1588      C1594   1.439       .  A
C1588      C1589   1.425       .  A
C1589      C1591   1.401       .  A
C1589      C1590   1.416       .  A
C1590      H1601   1.084       .  S
C1591      C1592   1.395       .  A
C1591      H1602   1.084       .  S
C1592      C1593   1.402       .  A
C1592      H1603   1.084       .  S
C1593      C1594   1.422       .  A
C1593      C1598   1.414       .  A
C1594      C1595   1.417       .  A
C1595      C1596   1.403       .  A
C1595      H1604   1.077       .  S
C1596      C1597   1.402       .  A
C1596      H1605   1.083       .  S
C1597      C1598   1.407       .  A
C1598      H1606   1.084       .  S
C1607      C1608   1.402       .  A
C1607      C1612   1.402   1_545  A
C1608      C1609   1.410       .  A
C1608      H1621   1.083       .  S
C1609      C1610   1.420       .  A
C1609      H1622   1.078       .  S
C1610      C1616   1.444       .  A
C1610      C1611   1.423   1_545  A
C1611      C1613   1.400       .  A
C1611      C1612   1.410       .  A
C1612      H1623   1.085       .  S
C1613      C1614   1.392       .  A
C1613      H1624   1.084       .  S
C1614      C1615   1.400   1_565  A
C1614      H1625   1.084       .  S
C1615      C1616   1.425       .  A
C1615      C1620   1.414   1_545  A
C1616      C1617   1.417       .  A
C1617      C1618   1.407       .  A
C1617      H1626   1.079       .  S
C1618      C1619   1.406       .  A
C1618      H1627   1.083       .  S
C1619      C1620   1.405   1_545  A
C1620      H1628   1.085       .  S
C1629      C1630   1.400       .  A
C1629      C1634   1.400       .  A
C1630      C1631   1.407       .  A
C1630      H1643   1.083       .  S
C1631      C1632   1.420       .  A
C1631      H1644   1.078       .  S
C1632      C1638   1.439       .  A
C1632      C1633   1.423       .  A
C1633      C1635   1.399       .  A
C1633      C1634   1.406       .  A
C1634      H1645   1.085       .  S
C1635      C1636   1.389       .  A
C1635      H1646   1.084       .  S
C1636      C1637   1.399       .  A
C1636      H1647   1.084       .  S
C1637      C1638   1.424       .  A
C1637      C1642   1.409       .  A
C1638      C1639   1.417       .  A
C1639      C1640   1.405       .  A
C1639      H1648   1.078       .  S
C1640      C1641   1.404       .  A
C1640      H1649   1.083       .  S
C1641      C1642   1.403       .  A
C1642      H1650   1.084       .  S
C1651      C1652   1.399       .  A
C1651      C1656   1.399       .  A
C1652      C1653   1.402       .  A
C1652      H1665   1.083       .  S
C1653      C1654   1.419       .  A
C1653      H1666   1.077       .  S
C1654      C1660   1.424       .  A
C1654      C1655   1.419       .  A
C1655      C1657   1.397       .  A
C1655      C1656   1.384       .  A
C1656      H1667   1.085       .  S
C1657      C1658   1.377       .  A
C1657      H1668   1.085       .  S
C1658      C1659   1.394       .  A
C1658      H1669   1.085       .  S
C1659      C1660   1.423       .  A
C1659      C1664   1.386       .  A
C1660      C1661   1.416       .  A
C1661      C1662   1.399       .  A
C1661      H1670   1.077       .  S
C1662      C1663   1.398       .  A
C1662      H1671   1.083       .  S
C1663      C1664   1.388       .  A
C1664      H1672   1.080       .  S
C1673      C1674   1.396       .  A
C1673      C1678   1.391       .  A
C1674      C1675   1.394       .  A
C1674      H1687   1.084       .  S
C1675      C1676   1.414       .  A
C1675      H1688   1.078       .  S
C1676      C1682   1.425       .  A
C1676      C1677   1.425       .  A
C1677      C1679   1.397       .  A
C1677      C1678   1.398       .  A
C1678      H1689   1.080       .  S
C1679      C1680   1.385       .  A
C1679      H1690   1.085       .  S
C1680      C1681   1.399       .  A
C1680      H1691   1.085       .  S
C1681      C1682   1.420       .  A
C1681      C1686   1.393       .  A
C1682      C1683   1.420       .  A
C1683      C1684   1.399       .  A
C1683      H1692   1.078       .  S
C1684      C1685   1.395       .  A
C1684      H1693   1.083       .  S
C1685      C1686   1.397       .  A
C1686      H1694   1.084       .  S
C1695      C1696   1.395       .  A
C1695      C1700   1.397       .  A
C1696      C1697   1.397       .  A
C1696      H1709   1.083       .  S
C1697      C1698   1.419       .  A
C1697      H1710   1.077       .  S
C1698      C1704   1.422       .  A
C1698      C1699   1.420       .  A
C1699      C1701   1.398       .  A
C1699      C1700   1.389       .  A
C1700      H1711   1.086       .  S
C1701      C1702   1.382       .  A
C1701      H1712   1.085       .  S
C1702      C1703   1.396       .  A
C1702      H1713   1.085       .  S
C1703      C1704   1.424       .  A
C1703      C1708   1.393       .  A
C1704      C1705   1.414       .  A
C1705      C1706   1.393       .  A
C1705      H1714   1.077       .  S
C1706      C1707   1.396       .  A
C1706      H1715   1.084   1_545  S
C1707      C1708   1.388       .  A
C1708      H1716   1.078       .  S
C1717      C1718   1.400   1_545  A
C1717      C1722   1.400       .  A
C1718      C1719   1.397       .  A
C1718      H1731   1.084       .  S
C1719      C1720   1.414   1_565  A
C1719      H1732   1.076       .  S
C1720      C1726   1.434       .  A
C1720      C1721   1.426       .  A
C1721      C1723   1.399       .  A
C1721      C1722   1.410       .  A
C1722      H1733   1.084       .  S
C1723      C1724   1.391       .  A
C1723      H1734   1.084       .  S
C1724      C1725   1.401       .  A
C1724      H1735   1.084       .  S
C1725      C1726   1.421       .  A
C1725      C1730   1.407       .  A
C1726      C1727   1.418   1_545  A
C1727      C1728   1.402       .  A
C1727      H1736   1.077       .  S
C1728      C1729   1.400   1_565  A
C1728      H1737   1.083       .  S
C1729      C1730   1.405       .  A
C1730      H1738   1.085       .  S
C1739      C1740   1.404       .  A
C1739      C1744   1.408       .  A
C1740      C1741   1.400       .  A
C1740      H1753   1.083   1_565  S
C1741      C1742   1.415       .  A
C1741      H1754   1.076   1_565  S
C1742      C1748   1.439       .  A
C1742      C1743   1.423       .  A
C1743      C1745   1.402       .  A
C1743      C1744   1.418       .  A
C1744      H1755   1.084       .  S
C1745      C1746   1.397       .  A
C1745      H1756   1.084       .  S
C1746      C1747   1.401       .  A
C1746      H1757   1.084       .  S
C1747      C1748   1.425       .  A
C1747      C1752   1.418       .  A
C1748      C1749   1.415   1_565  A
C1749      C1750   1.398       .  A
C1749      H1758   1.076       .  S
C1750      C1751   1.400   1_545  A
C1750      H1759   1.084       .  S
C1751      C1752   1.405       .  A
C1752      H1760   1.084       .  S
C1761      C1762   1.397       .  A
C1761      C1766   1.388       .  A
C1762      C1763   1.396       .  A
C1762      H1775   1.084       .  S
C1763      C1764   1.414       .  A
C1763      H1776   1.077       .  S
C1764      C1770   1.424       .  A
C1764      C1765   1.424       .  A
C1765      C1767   1.395       .  A
C1765      C1766   1.392       .  A
C1766      H1777   1.079       .  S
C1767      C1768   1.381       .  A
C1767      H1778   1.085       .  S
C1768      C1769   1.397       .  A
C1768      H1779   1.085       .  S
C1769      C1770   1.420       .  A
C1769      C1774   1.387       .  A
C1770      C1771   1.420       .  A
C1771      C1772   1.401       .  A
C1771      H1780   1.077       .  S
C1772      C1773   1.396       .  A
C1772      H1781   1.083       .  S
C1773      C1774   1.397       .  A
C1774      H1782   1.086       .  S
C1783      C1784   1.399       .  A
C1783      C1788   1.397       .  A
C1784      C1785   1.401       .  A
C1784      H1797   1.084       .  S
C1785      C1786   1.418       .  A
C1785      H1798   1.075       .  S
C1786      C1792   1.425       .  A
C1786      C1787   1.420       .  A
C1787      C1789   1.396       .  A
C1787      C1788   1.387       .  A
C1788      H1799   1.084       .  S
C1789      C1790   1.379       .  A
C1789      H1800   1.083       .  S
C1790      C1791   1.395       .  A
C1790      H1801   1.085       .  S
C1791      C1792   1.422       .  A
C1791      C1796   1.388       .  A
C1792      C1793   1.417       .  A
C1793      C1794   1.400       .  A
C1793      H1802   1.076       .  S
C1794      C1795   1.398       .  A
C1794      H1803   1.083       .  S
C1795      C1796   1.394       .  A
C1796      H1804   1.085       .  S
C1805      C1806   1.399       .  A
C1805      C1810   1.395       .  A
C1806      C1807   1.402       .  A
C1806      H1819   1.083       .  S
C1807      C1808   1.418       .  A
C1807      H1820   1.078       .  S
C1808      C1814   1.427       .  A
C1808      C1809   1.422       .  A
C1809      C1811   1.395       .  A
C1809      C1810   1.389       .  A
C1810      H1821   1.085       .  S
C1811      C1812   1.379       .  A
C1811      H1822   1.085       .  S
C1812      C1813   1.396       .  A
C1812      H1823   1.084       .  S
C1813      C1814   1.421       .  A
C1813      C1818   1.389       .  A
C1814      C1815   1.418       .  A
C1815      C1816   1.402       .  A
C1815      H1824   1.078       .  S
C1816      C1817   1.400       .  A
C1816      H1825   1.083       .  S
C1817      C1818   1.398       .  A
C1818      H1826   1.085       .  S
C1827      C1828   1.394       .  A
C1827      C1832   1.397       .  A
C1828      C1829   1.398       .  A
C1828      H1841   1.083       .  S
C1829      C1830   1.419       .  A
C1829      H1842   1.077       .  S
C1830      C1836   1.423       .  A
C1830      C1831   1.420       .  A
C1831      C1833   1.398       .  A
C1831      C1832   1.391       .  A
C1832      H1843   1.085       .  S
C1833      C1834   1.384       .  A
C1833      H1844   1.084       .  S
C1834      C1835   1.397       .  A
C1834      H1845   1.084       .  S
C1835      C1836   1.425       .  A
C1835      C1840   1.396       .  A
C1836      C1837   1.414       .  A
C1837      C1838   1.393       .  A
C1837      H1846   1.077       .  S
C1838      C1839   1.395       .  A
C1838      H1847   1.084       .  S
C1839      C1840   1.390       .  A
C1840      H1848   1.079       .  S
C1849      C1850   1.399       .  A
C1849      C1854   1.403       .  A
C1850      C1851   1.404       .  A
C1850      H1863   1.083       .  S
C1851      C1852   1.420       .  A
C1851      H1864   1.078       .  S
C1852      C1858   1.439       .  A
C1852      C1853   1.422       .  A
C1853      C1855   1.401       .  A
C1853      C1854   1.410       .  A
C1854      H1865   1.085       .  S
C1855      C1856   1.394       .  A
C1855      H1866   1.084       .  S
C1856      C1857   1.400       .  A
C1856      H1867   1.084       .  S
C1857      C1858   1.425       .  A
C1857      C1862   1.417       .  A
C1858      C1859   1.413       .  A
C1859      C1860   1.400       .  A
C1859      H1868   1.078       .  S
C1860      C1861   1.406       .  A
C1860      H1869   1.083       .  S
C1861      C1862   1.406       .  A
C1862      H1870   1.084       .  S
C1871      C1872   1.401       .  A
C1871      C1876   1.401       .  A
C1872      C1873   1.399       .  A
C1872      H1885   1.084       .  S
C1873      C1874   1.414       .  A
C1873      H1886   1.078       .  S
C1874      C1880   1.439       .  A
C1874      C1875   1.426       .  A
C1875      C1877   1.399       .  A
C1875      C1876   1.414       .  A
C1876      H1887   1.084       .  S
C1877      C1878   1.393       .  A
C1877      H1888   1.084       .  S
C1878      C1879   1.402       .  A
C1878      H1889   1.084       .  S
C1879      C1880   1.421       .  A
C1879      C1884   1.410       .  A
C1880      C1881   1.419       .  A
C1881      C1882   1.405       .  A
C1881      H1890   1.078       .  S
C1882      C1883   1.402       .  A
C1882      H1891   1.083       .  S
C1883      C1884   1.408       .  A
C1884      H1892   1.084       .  S
C1893      C1894   1.401       .  A
C1893      C1898   1.401       .  A
C1894      C1895   1.397       .  A
C1894      H1907   1.084       .  S
C1895      C1896   1.413       .  A
C1895      H1908   1.077       .  S
C1896      C1902   1.435       .  A
C1896      C1897   1.425       .  A
C1897      C1899   1.399       .  A
C1897      C1898   1.410       .  A
C1898      H1909   1.083       .  S
C1899      C1900   1.391       .  A
C1899      H1910   1.084       .  S
C1900      C1901   1.401       .  A
C1900      H1911   1.084       .  S
C1901      C1902   1.421       .  A
C1901      C1906   1.405       .  A
C1902      C1903   1.419       .  A
C1903      C1904   1.403       .  A
C1903      H1912   1.077       .  S
C1904      C1905   1.401       .  A
C1904      H1913   1.083       .  S
C1905      C1906   1.405       .  A
C1906      H1914   1.084       .  S
C1915      C1916   1.400       .  A
C1915      C1920   1.402       .  A
C1916      C1917   1.398       .  A
C1916      H1929   1.084       .  S
C1917      C1918   1.414       .  A
C1917      H1930   1.077       .  S
C1918      C1924   1.437       .  A
C1918      C1919   1.426       .  A
C1919      C1921   1.400       .  A
C1919      C1920   1.415       .  A
C1920      H1931   1.084       .  S
C1921      C1922   1.394       .  A
C1921      H1932   1.084       .  S
C1922      C1923   1.401       .  A
C1922      H1933   1.084       .  S
C1923      C1924   1.421       .  A
C1923      C1928   1.410       .  A
C1924      C1925   1.418       .  A
C1925      C1926   1.403       .  A
C1925      H1934   1.077       .  S
C1926      C1927   1.402       .  A
C1926      H1935   1.083       .  S
C1927      C1928   1.407       .  A
C1928      H1936   1.084       .  S
C1937      C1938   1.402       .  A
C1937      C1942   1.401       .  A
C1938      C1939   1.400       .  A
C1938      H1951   1.083       .  S
C1939      C1940   1.414       .  A
C1939      H1952   1.078       .  S
C1940      C1946   1.439       .  A
C1940      C1941   1.427       .  A
C1941      C1943   1.399       .  A
C1941      C1942   1.413       .  A
C1942      H1953   1.084       .  S
C1943      C1944   1.392       .  A
C1943      H1954   1.084       .  S
C1944      C1945   1.401       .  A
C1944      H1955   1.084       .  S
C1945      C1946   1.420       .  A
C1945      C1950   1.408       .  A
C1946      C1947   1.420       .  A
C1947      C1948   1.407       .  A
C1947      H1956   1.078       .  S
C1948      C1949   1.402       .  A
C1948      H1957   1.083       .  S
C1949      C1950   1.408       .  A
C1950      H1958   1.084       .  S
C1959      C1960   1.402       .  A
C1959      C1964   1.402       .  A
C1960      C1961   1.400       .  A
C1960      H1973   1.083       .  S
C1961      C1962   1.414       .  A
C1961      H1974   1.078       .  S
C1962      C1968   1.439       .  A
C1962      C1963   1.425       .  A
C1963      C1965   1.400       .  A
C1963      C1964   1.414       .  A
C1964      H1975   1.084       .  S
C1965      C1966   1.393       .  A
C1965      H1976   1.084       .  S
C1966      C1967   1.401       .  A
C1966      H1977   1.084       .  S
C1967      C1968   1.422       .  A
C1967      C1972   1.411       .  A
C1968      C1969   1.418       .  A
C1969      C1970   1.404       .  A
C1969      H1978   1.078       .  S
C1970      C1971   1.402       .  A
C1970      H1979   1.083       .  S
C1971      C1972   1.405       .  A
C1972      H1980   1.085       .  S
C1981      C1982   1.396       .  A
C1981      C1986   1.390       .  A
C1982      C1983   1.394       .  A
C1982      H1995   1.084       .  S
C1983      C1984   1.414       .  A
C1983      H1996   1.077       .  S
C1984      C1990   1.424       .  A
C1984      C1985   1.425       .  A
C1985      C1987   1.397       .  A
C1985      C1986   1.396       .  A
C1986      H1997   1.081       .  S
C1987      C1988   1.384       .  A
C1987      H1998   1.084       .  S
C1988      C1989   1.398       .  A
C1988      H1999   1.085       .  S
C1989      C1990   1.420       .  A
C1989      C1994   1.392       .  A
C1990      C1991   1.419       .  A
C1991      C1992   1.399       .  A
C1991      H2000   1.077       .  S
C1992      C1993   1.395       .  A
C1992      H2001   1.084       .  S
C1993      C1994   1.396       .  A
C1994      H2002   1.085       .  S
C2003      C2004   1.399       .  A
C2003      C2008   1.397       .  A
C2004      C2005   1.401       .  A
C2004      H2017   1.083       .  S
C2005      C2006   1.418       .  A
C2005      H2018   1.078       .  S
C2006      C2012   1.427       .  A
C2006      C2007   1.422       .  A
C2007      C2009   1.396       .  A
C2007      C2008   1.390       .  A
C2008      H2019   1.085       .  S
C2009      C2010   1.380       .  A
C2009      H2020   1.084       .  S
C2010      C2011   1.396       .  A
C2010      H2021   1.084       .  S
C2011      C2012   1.422       .  A
C2011      C2016   1.390       .  A
C2012      C2013   1.418       .  A
C2013      C2014   1.401       .  A
C2013      H2022   1.078       .  S
C2014      C2015   1.399       .  A
C2014      H2023   1.083       .  S
C2015      C2016   1.397       .  A
C2016      H2024   1.085       .  S
C2025      C2026   1.399       .  A
C2025      C2030   1.392       .  A
C2026      C2027   1.399       .  A
C2026      H2039   1.083       .  S
C2027      C2028   1.415       .  A
C2027      H2040   1.078       .  S
C2028      C2034   1.425       .  A
C2028      C2029   1.423       .  A
C2029      C2031   1.395       .  A
C2029      C2030   1.391       .  A
C2030      H2041   1.082       .  S
C2031      C2032   1.380       .  A
C2031      H2042   1.084       .  S
C2032      C2033   1.398       .  A
C2032      H2043   1.084       .  S
C2033      C2034   1.419       .  A
C2033      C2038   1.387       .  A
C2034      C2035   1.419       .  A
C2035      C2036   1.403       .  A
C2035      H2044   1.078       .  S
C2036      C2037   1.399       .  A
C2036      H2045   1.083       .  S
C2037      C2038   1.401       .  A
C2038      H2046   1.085       .  S
C2047      C2048   1.403       .  A
C2047      C2052   1.406       .  A
C2048      C2049   1.406       .  A
C2048      H2061   1.083       .  S
C2049      C2050   1.418       .  A
C2049      H2062   1.078       .  S
C2050      C2056   1.440       .  A
C2050      C2051   1.423       .  A
C2051      C2053   1.400   1_554  A
C2051      C2052   1.409       .  A
C2052      H2063   1.084   1_554  S
C2053      C2054   1.391       .  A
C2053      H2064   1.084       .  S
C2054      C2055   1.400   1_556  A
C2054      H2065   1.084       .  S
C2055      C2056   1.424       .  A
C2055      C2060   1.408       .  A
C2056      C2057   1.419       .  A
C2057      C2058   1.406       .  A
C2057      H2066   1.078       .  S
C2058      C2059   1.399       .  A
C2058      H2067   1.083       .  S
C2059      C2060   1.401       .  A
C2060      H2068   1.085   1_554  S
C2069      C2070   1.400   1_556  A
C2069      C2074   1.402       .  A
C2070      C2071   1.400       .  A
C2070      H2083   1.084       .  S
C2071      C2072   1.414   1_554  A
C2071      H2084   1.077       .  S
C2072      C2078   1.439       .  A
C2072      C2073   1.426       .  A
C2073      C2075   1.400       .  A
C2073      C2074   1.415       .  A
C2074      H2085   1.084       .  S
C2075      C2076   1.394       .  A
C2075      H2086   1.084       .  S
C2076      C2077   1.402       .  A
C2076      H2087   1.084       .  S
C2077      C2078   1.421       .  A
C2077      C2082   1.411       .  A
C2078      C2079   1.419   1_556  A
C2079      C2080   1.405       .  A
C2079      H2088   1.077       .  S
C2080      C2081   1.401   1_554  A
C2080      H2089   1.083       .  S
C2081      C2082   1.408       .  A
C2082      H2090   1.084       .  S
C2091      C2092   1.405       .  A
C2091      C2096   1.403       .  A
C2092      C2093   1.401       .  A
C2092      H2105   1.083       .  S
C2093      C2094   1.414       .  A
C2093      H2106   1.078       .  S
C2094      C2100   1.438       .  A
C2094      C2095   1.425       .  A
C2095      C2097   1.400       .  A
C2095      C2096   1.413       .  A
C2096      H2107   1.085       .  S
C2097      C2098   1.391       .  A
C2097      H2108   1.084       .  S
C2098      C2099   1.400       .  A
C2098      H2109   1.084       .  S
C2099      C2100   1.422       .  A
C2099      C2104   1.406       .  A
C2100      C2101   1.420       .  A
C2101      C2102   1.405       .  A
C2101      H2110   1.078       .  S
C2102      C2103   1.399       .  A
C2102      H2111   1.083       .  S
C2103      C2104   1.401       .  A
C2104      H2112   1.085       .  S
C2113      C2114   1.401       .  A
C2113      C2118   1.402       .  A
C2114      C2115   1.407       .  A
C2114      H2127   1.082       .  S
C2115      C2116   1.420       .  A
C2115      H2128   1.078       .  S
C2116      C2122   1.441       .  A
C2116      C2117   1.422       .  A
C2117      C2119   1.400       .  A
C2117      C2118   1.409       .  A
C2118      H2129   1.085       .  S
C2119      C2120   1.392       .  A
C2119      H2130   1.084       .  S
C2120      C2121   1.400       .  A
C2120      H2131   1.084       .  S
C2121      C2122   1.425       .  A
C2121      C2126   1.413       .  A
C2122      C2123   1.415       .  A
C2123      C2124   1.404       .  A
C2123      H2132   1.078       .  S
C2124      C2125   1.405       .  A
C2124      H2133   1.083       .  S
C2125      C2126   1.405       .  A
C2126      H2134   1.084       .  S
C2135      C2136   1.404       .  A
C2135      C2140   1.404       .  A
C2136      C2137   1.402       .  A
C2136      H2149   1.083       .  S
C2137      C2138   1.415       .  A
C2137      H2150   1.078       .  S
C2138      C2144   1.440       .  A
C2138      C2139   1.425       .  A
C2139      C2141   1.400       .  A
C2139      C2140   1.414       .  A
C2140      H2151   1.084       .  S
C2141      C2142   1.392       .  A
C2141      H2152   1.084       .  S
C2142      C2143   1.401       .  A
C2142      H2153   1.084       .  S
C2143      C2144   1.422       .  A
C2143      C2148   1.410       .  A
C2144      C2145   1.420       .  A
C2145      C2146   1.406       .  A
C2145      H2154   1.077       .  S
C2146      C2147   1.401       .  A
C2146      H2155   1.083       .  S
C2147      C2148   1.404       .  A
C2148      H2156   1.085       .  S
C2157      C2158   1.400       .  A
C2157      C2162   1.399       .  A
C2158      C2159   1.398       .  A
C2158      H2171   1.084       .  S
C2159      C2160   1.414       .  A
C2159      H2172   1.077       .  S
C2160      C2166   1.436       .  A
C2160      C2161   1.426       .  A
C2161      C2163   1.399       .  A
C2161      C2162   1.411       .  A
C2162      H2173   1.084       .  S
C2163      C2164   1.392       .  A
C2163      H2174   1.084       .  S
C2164      C2165   1.401       .  A
C2164      H2175   1.084       .  S
C2165      C2166   1.421       .  A
C2165      C2170   1.408       .  A
C2166      C2167   1.418       .  A
C2167      C2168   1.403       .  A
C2167      H2176   1.077       .  S
C2168      C2169   1.402       .  A
C2168      H2177   1.083       .  S
C2169      C2170   1.406       .  A
C2170      H2178   1.084       .  S
C2179      C2180   1.398       .  A
C2179      C2184   1.403       .  A
C2180      C2181   1.403       .  A
C2180      H2193   1.083       .  S
C2181      C2182   1.420       .  A
C2181      H2194   1.077       .  S
C2182      C2188   1.437       .  A
C2182      C2183   1.421       .  A
C2183      C2185   1.401       .  A
C2183      C2184   1.410       .  A
C2184      H2195   1.084       .  S
C2185      C2186   1.394       .  A
C2185      H2196   1.084       .  S
C2186      C2187   1.401       .  A
C2186      H2197   1.083       .  S
C2187      C2188   1.425       .  A
C2187      C2192   1.415       .  A
C2188      C2189   1.412       .  A
C2189      C2190   1.398       .  A
C2189      H2198   1.077       .  S
C2190      C2191   1.405       .  A
C2190      H2199   1.084       .  S
C2191      C2192   1.406       .  A
C2192      H2200   1.084       .  S
C2201      C2202   1.401       .  A
C2201      C2206   1.402       .  A
C2202      C2203   1.407       .  A
C2202      H2215   1.083       .  S
C2203      C2204   1.420       .  A
C2203      H2216   1.077       .  S
C2204      C2210   1.441       .  A
C2204      C2205   1.422       .  A
C2205      C2207   1.400       .  A
C2205      C2206   1.409       .  A
C2206      H2217   1.085       .  S
C2207      C2208   1.392       .  A
C2207      H2218   1.084       .  S
C2208      C2209   1.400       .  A
C2208      H2219   1.084       .  S
C2209      C2210   1.425       .  A
C2209      C2214   1.415       .  A
C2210      C2211   1.414       .  A
C2211      C2212   1.403       .  A
C2211      H2220   1.078       .  S
C2212      C2213   1.407       .  A
C2212      H2221   1.083       .  S
C2213      C2214   1.405       .  A
C2214      H2222   1.084       .  S
C2223      C2224   1.399       .  A
C2223      C2228   1.399       .  A
C2224      C2225   1.401       .  A
C2224      H2237   1.083       .  S
C2225      C2226   1.418       .  A
C2225      H2238   1.078       .  S
C2226      C2232   1.425       .  A
C2226      C2227   1.420       .  A
C2227      C2229   1.396       .  A
C2227      C2228   1.386       .  A
C2228      H2239   1.085       .  S
C2229      C2230   1.378       .  A
C2229      H2240   1.084       .  S
C2230      C2231   1.395       .  A
C2230      H2241   1.084       .  S
C2231      C2232   1.422       .  A
C2231      C2236   1.387       .  A
C2232      C2233   1.417       .  A
C2233      C2234   1.400       .  A
C2233      H2242   1.078       .  S
C2234      C2235   1.398       .  A
C2234      H2243   1.083       .  S
C2235      C2236   1.393       .  A
C2236      H2244   1.084       .  S
C2245      C2246   1.392       .  A
C2245      C2250   1.398       .  A
C2246      C2247   1.395       .  A
C2246      H2259   1.084       .  S
C2247      C2248   1.419       .  A
C2247      H2260   1.077       .  S
C2248      C2254   1.421       .  A
C2248      C2249   1.419       .  A
C2249      C2251   1.400       .  A
C2249      C2250   1.394       .  A
C2250      H2261   1.084       .  S
C2251      C2252   1.387       .  A
C2251      H2262   1.084       .  S
C2252      C2253   1.398       .  A
C2252      H2263   1.084       .  S
C2253      C2254   1.426       .  A
C2253      C2258   1.400       .  A
C2254      C2255   1.412       .  A
C2255      C2256   1.387       .  A
C2255      H2264   1.076       .  S
C2256      C2257   1.394       .  A
C2256      H2265   1.084       .  S
C2257      C2258   1.392       .  A
C2258      H2266   1.084       .  S
C2267      C2268   1.397       .  A
C2267      C2272   1.394       .  A
C2268      C2269   1.397       .  A
C2268      H2281   1.084       .  S
C2269      C2270   1.416       .  A
C2269      H2282   1.077       .  S
C2270      C2276   1.423       .  A
C2270      C2271   1.423       .  A
C2271      C2273   1.395       .  A
C2271      C2272   1.389       .  A
C2272      H2283   1.085       .  S
C2273      C2274   1.380       .  A
C2273      H2284   1.084       .  S
C2274      C2275   1.397       .  A
C2274      H2285   1.084       .  S
C2275      C2276   1.420       .  A
C2275      C2280   1.388       .  A
C2276      C2277   1.418       .  A
C2277      C2278   1.399       .  A
C2277      H2286   1.077       .  S
C2278      C2279   1.398       .  A
C2278      H2287   1.083       .  S
C2279      C2280   1.398       .  A
C2280      H2288   1.085       .  S
C2289      C2290   1.405       .  A
C2289      C2294   1.405   1_655  A
C2290      C2291   1.404       .  A
C2290      H2303   1.084       .  S
C2291      C2292   1.415       .  A
C2291      H2304   1.078       .  S
C2292      C2298   1.442       .  A
C2292      C2293   1.425   1_655  A
C2293      C2295   1.400       .  A
C2293      C2294   1.415       .  A
C2294      H2305   1.084       .  S
C2295      C2296   1.393       .  A
C2295      H2306   1.084       .  S
C2296      C2297   1.401       .  A
C2296      H2307   1.084       .  S
C2297      C2298   1.422   1_455  A
C2297      C2302   1.410       .  A
C2298      C2299   1.421       .  A
C2299      C2300   1.407       .  A
C2299      H2308   1.078       .  S
C2300      C2301   1.400       .  A
C2300      H2309   1.083       .  S
C2301      C2302   1.402   1_655  A
C2302      H2310   1.085       .  S
C2311      C2312   1.401       .  A
C2311      C2316   1.406       .  A
C2312      C2313   1.406       .  A
C2312      H2325   1.083       .  S
C2313      C2314   1.420       .  A
C2313      H2326   1.078       .  S
C2314      C2320   1.437       .  A
C2314      C2315   1.420       .  A
C2315      C2317   1.401       .  A
C2315      C2316   1.406       .  A
C2316      H2327   1.085       .  S
C2317      C2318   1.391       .  A
C2317      H2328   1.084       .  S
C2318      C2319   1.399       .  A
C2318      H2329   1.084       .  S
C2319      C2320   1.426       .  A
C2319      C2324   1.412       .  A
C2320      C2321   1.414       .  A
C2321      C2322   1.399       .  A
C2321      H2330   1.078       .  S
C2322      C2323   1.401       .  A
C2322      H2331   1.084       .  S
C2323      C2324   1.400       .  A
C2324      H2332   1.084       .  S
C2333      C2334   1.402       .  A
C2333      C2338   1.403       .  A
C2334      C2335   1.399       .  A
C2334      H2347   1.083       .  S
C2335      C2336   1.416       .  A
C2335      H2348   1.077       .  S
C2336      C2342   1.434       .  A
C2336      C2337   1.422       .  A
C2337      C2339   1.400       .  A
C2337      C2338   1.409       .  A
C2338      H2349   1.085       .  S
C2339      C2340   1.392       .  A
C2339      H2350   1.084       .  S
C2340      C2341   1.399       .  A
C2340      H2351   1.084       .  S
C2341      C2342   1.425       .  A
C2341      C2346   1.410       .  A
C2342      C2343   1.414       .  A
C2343      C2344   1.396       .  A
C2343      H2352   1.077       .  S
C2344      C2345   1.399       .  A
C2344      H2353   1.083       .  S
C2345      C2346   1.400       .  A
C2346      H2354   1.085       .  S
C2355      C2356   1.398       .  A
C2355      C2360   1.394       .  A
C2356      C2357   1.398       .  A
C2356      H2369   1.083       .  S
C2357      C2358   1.417       .  A
C2357      H2370   1.078       .  S
C2358      C2364   1.424       .  A
C2358      C2359   1.422       .  A
C2359      C2361   1.395       .  A
C2359      C2360   1.388       .  A
C2360      H2371   1.086       .  S
C2361      C2362   1.379       .  A
C2361      H2372   1.084       .  S
C2362      C2363   1.396       .  A
C2362      H2373   1.084       .  S
C2363      C2364   1.421       .  A
C2363      C2368   1.387       .  A
C2364      C2365   1.418       .  A
C2365      C2366   1.399       .  A
C2365      H2374   1.078       .  S
C2366      C2367   1.398       .  A
C2366      H2375   1.083       .  S
C2367      C2368   1.396       .  A
C2368      H2376   1.086       .  S
C2377      C2378   1.396       .  A
C2377      C2382   1.397       .  A
C2378      C2379   1.401       .  A
C2378      H2391   1.083       .  S
C2379      C2380   1.420       .  A
C2379      H2392   1.078       .  S
C2380      C2386   1.423       .  A
C2380      C2381   1.420       .  A
C2381      C2383   1.398       .  A
C2381      C2382   1.387       .  A
C2382      H2393   1.086       .  S
C2383      C2384   1.381       .  A
C2383      H2394   1.085       .  S
C2384      C2385   1.395       .  A
C2384      H2395   1.084       .  S
C2385      C2386   1.424       .  A
C2385      C2390   1.392       .  A
C2386      C2387   1.414       .  A
C2387      C2388   1.396       .  A
C2387      H2396   1.078       .  S
C2388      C2389   1.398       .  A
C2388      H2397   1.084       .  S
C2389      C2390   1.388       .  A
C2390      H2398   1.079       .  S
C2399      C2400   1.405       .  A
C2399      C2404   1.406       .  A
C2400      C2401   1.407       .  A
C2400      H2413   1.083       .  S
C2401      C2402   1.417       .  A
C2401      H2414   1.078       .  S
C2402      C2408   1.443       .  A
C2402      C2403   1.424       .  A
C2403      C2405   1.400       .  A
C2403      C2404   1.413       .  A
C2404      H2415   1.084       .  S
C2405      C2406   1.392       .  A
C2405      H2416   1.084       .  S
C2406      C2407   1.400       .  A
C2406      H2417   1.084       .  S
C2407      C2408   1.423       .  A
C2407      C2412   1.411       .  A
C2408      C2409   1.420       .  A
C2409      C2410   1.409       .  A
C2409      H2418   1.078       .  S
C2410      C2411   1.402       .  A
C2410      H2419   1.083       .  S
C2411      C2412   1.402       .  A
C2412      H2420   1.085       .  S
C2421      C2422   1.406       .  A
C2421      C2426   1.400       .  A
C2422      C2423   1.404       .  A
C2422      H2435   1.083       .  S
C2423      C2424   1.414       .  A
C2423      H2436   1.078       .  S
C2424      C2430   1.440       .  A
C2424      C2425   1.426       .  A
C2425      C2427   1.398       .  A
C2425      C2426   1.412       .  A
C2426      H2437   1.085       .  S
C2427      C2428   1.389       .  A
C2427      H2438   1.084       .  S
C2428      C2429   1.399       .  A
C2428      H2439   1.085       .  S
C2429      C2430   1.421       .  A
C2429      C2434   1.403       .  A
C2430      C2431   1.422       .  A
C2431      C2432   1.409       .  A
C2431      H2440   1.078       .  S
C2432      C2433   1.402       .  A
C2432      H2441   1.082       .  S
C2433      C2434   1.400       .  A
C2434      H2442   1.086       .  S
C2443      C2444   1.402       .  A
C2443      C2448   1.405       .  A
C2444      C2445   1.410       .  A
C2444      H2457   1.083       .  S
C2445      C2446   1.421       .  A
C2445      H2458   1.078       .  S
C2446      C2452   1.446       .  A
C2446      C2447   1.423       .  A
C2447      C2449   1.401       .  A
C2447      C2448   1.414       .  A
C2448      H2459   1.085       .  S
C2449      C2450   1.394       .  A
C2449      H2460   1.084       .  S
C2450      C2451   1.401       .  A
C2450      H2461   1.084       .  S
C2451      C2452   1.426       .  A
C2451      C2456   1.419       .  A
C2452      C2453   1.415       .  A
C2453      C2454   1.406       .  A
C2453      H2462   1.078       .  S
C2454      C2455   1.407       .  A
C2454      H2463   1.083       .  S
C2455      C2456   1.407       .  A
C2456      H2464   1.084       .  S
C2465      C2466   1.403       .  A
C2465      C2470   1.405       .  A
C2466      C2467   1.406       .  A
C2466      H2479   1.082       .  S
C2467      C2468   1.419       .  A
C2467      H2480   1.079       .  S
C2468      C2474   1.440       .  A
C2468      C2469   1.421       .  A
C2469      C2471   1.401       .  A
C2469      C2470   1.410       .  A
C2470      H2481   1.085       .  S
C2471      C2472   1.393       .  A
C2471      H2482   1.084       .  S
C2472      C2473   1.399       .  A
C2472      H2483   1.084       .  S
C2473      C2474   1.426       .  A
C2473      C2478   1.414       .  A
C2474      C2475   1.415       .  A
C2475      C2476   1.401       .  A
C2475      H2484   1.078       .  S
C2476      C2477   1.402       .  A
C2476      H2485   1.083       .  S
C2477      C2478   1.401       .  A
C2478      H2486   1.084       .  S
C2487      C2488   1.402       .  A
C2487      C2492   1.403       .  A
C2488      C2489   1.400       .  A
C2488      H2501   1.083       .  S
C2489      C2490   1.414       .  A
C2489      H2502   1.078       .  S
C2490      C2496   1.439       .  A
C2490      C2491   1.426       .  A
C2491      C2493   1.400       .  A
C2491      C2492   1.414       .  A
C2492      H2503   1.084       .  S
C2493      C2494   1.393       .  A
C2493      H2504   1.084       .  S
C2494      C2495   1.402       .  A
C2494      H2505   1.084       .  S
C2495      C2496   1.420       .  A
C2495      C2500   1.409       .  A
C2496      C2497   1.420       .  A
C2497      C2498   1.406       .  A
C2497      H2506   1.078       .  S
C2498      C2499   1.401       .  A
C2498      H2507   1.083       .  S
C2499      C2500   1.409       .  A
C2500      H2508   1.084       .  S
C2509      C2510   1.400       .  A
C2509      C2514   1.403       .  A
C2510      C2511   1.405       .  A
C2510      H2523   1.083       .  S
C2511      C2512   1.420       .  A
C2511      H2524   1.078       .  S
C2512      C2518   1.440       .  A
C2512      C2513   1.422       .  A
C2513      C2515   1.401       .  A
C2513      C2514   1.410       .  A
C2514      H2525   1.085       .  S
C2515      C2516   1.393       .  A
C2515      H2526   1.084       .  S
C2516      C2517   1.401       .  A
C2516      H2527   1.083       .  S
C2517      C2518   1.424       .  A
C2517      C2522   1.415       .  A
C2518      C2519   1.414       .  A
C2519      C2520   1.402       .  A
C2519      H2528   1.078       .  S
C2520      C2521   1.405       .  A
C2520      H2529   1.083       .  S
C2521      C2522   1.406       .  A
C2522      H2530   1.083       .  S
C2531      C2532   1.400       .  A
C2531      C2536   1.401       .  A
C2532      C2533   1.407       .  A
C2532      H2545   1.083       .  S
C2533      C2534   1.421       .  A
C2533      H2546   1.078       .  S
C2534      C2540   1.441       .  A
C2534      C2535   1.422       .  A
C2535      C2537   1.400       .  A
C2535      C2536   1.409       .  A
C2536      H2547   1.085       .  S
C2537      C2538   1.392       .  A
C2537      H2548   1.084       .  S
C2538      C2539   1.400       .  A
C2538      H2549   1.084       .  S
C2539      C2540   1.425       .  A
C2539      C2544   1.415       .  A
C2540      C2541   1.415       .  A
C2541      C2542   1.404       .  A
C2541      H2550   1.078       .  S
C2542      C2543   1.406       .  A
C2542      H2551   1.083       .  S
C2543      C2544   1.405       .  A
C2544      H2552   1.084       .  S
C2553      C2554   1.400       .  A
C2553      C2558   1.401       .  A
C2554      C2555   1.406       .  A
C2554      H2567   1.083       .  S
C2555      C2556   1.420       .  A
C2555      H2568   1.077       .  S
C2556      C2562   1.439       .  A
C2556      C2557   1.423       .  A
C2557      C2559   1.400       .  A
C2557      C2558   1.407       .  A
C2558      H2569   1.085       .  S
C2559      C2560   1.390       .  A
C2559      H2570   1.084       .  S
C2560      C2561   1.399       .  A
C2560      H2571   1.084       .  S
C2561      C2562   1.425       .  A
C2561      C2566   1.411       .  A
C2562      C2563   1.415       .  A
C2563      C2564   1.403       .  A
C2563      H2572   1.077       .  S
C2564      C2565   1.406       .  A
C2564      H2573   1.083       .  S
C2565      C2566   1.403       .  A
C2566      H2574   1.084       .  S
C2575      C2576   1.396       .  A
C2575      C2580   1.400       .  A
C2576      C2577   1.402       .  A
C2576      H2589   1.083       .  S
C2577      C2578   1.420       .  A
C2577      H2590   1.078       .  S
C2578      C2584   1.423       .  A
C2578      C2579   1.419       .  A
C2579      C2581   1.398       .  A
C2579      C2580   1.386       .  A
C2580      H2591   1.086       .  S
C2581      C2582   1.380       .  A
C2581      H2592   1.084       .  S
C2582      C2583   1.395       .  A
C2582      H2593   1.085       .  S
C2583      C2584   1.423       .  A
C2583      C2588   1.390       .  A
C2584      C2585   1.414       .  A
C2585      C2586   1.397       .  A
C2585      H2594   1.078       .  S
C2586      C2587   1.398       .  A
C2586      H2595   1.084       .  S
C2587      C2588   1.389       .  A
C2588      H2596   1.079       .  S
C2597      C2598   1.399       .  A
C2597      C2602   1.397       .  A
C2598      C2599   1.399       .  A
C2598      H2611   1.083       .  S
C2599      C2600   1.418       .  A
C2599      H2612   1.077       .  S
C2600      C2606   1.423       .  A
C2600      C2601   1.420       .  A
C2601      C2603   1.396       .  A
C2601      C2602   1.386       .  A
C2602      H2613   1.085       .  S
C2603      C2604   1.379       .  A
C2603      H2614   1.084       .  S
C2604      C2605   1.395       .  A
C2604      H2615   1.085       .  S
C2605      C2606   1.423       .  A
C2605      C2610   1.388       .  A
C2606      C2607   1.416       .  A
C2607      C2608   1.398       .  A
C2607      H2616   1.077       .  S
C2608      C2609   1.398       .  A
C2608      H2617   1.084       .  S
C2609      C2610   1.393       .  A
C2610      H2618   1.085       .  S
C2619      C2620   1.400       .  A
C2619      C2624   1.403       .  A
C2620      C2621   1.380       .  A
C2620      H2633   1.084       .  S
C2621      C2622   1.406       .  A
C2621      H2634   1.079       .  S
C2622      C2628   1.411       .  A
C2622      C2623   1.419       .  A
C2623      C2625   1.402       .  A
C2623      C2624   1.408       .  A
C2624      H2635   1.084       .  S
C2625      C2626   1.397       .  A
C2625      H2636   1.084       .  S
C2626      C2627   1.403       .  A
C2626      H2637   1.084       .  S
C2627      C2628   1.418       .  A
C2627      C2632   1.405       .  A
C2628      C2629   1.409       .  A
C2629      C2630   1.382       .  A
C2629      H2638   1.079       .  S
C2630      C2631   1.395       .  A
C2630      H2639   1.084       .  S
C2631      C2632   1.402       .  A
C2632      H2640   1.084       .  S
C2641      C2642   1.404       .  A
C2641      C2646   1.404       .  A
C2642      C2643   1.406       .  A
C2642      H2655   1.083       .  S
C2643      C2644   1.417       .  A
C2643      H2656   1.078       .  S
C2644      C2650   1.441       .  A
C2644      C2645   1.424       .  A
C2645      C2647   1.400       .  A
C2645      C2646   1.412       .  A
C2646      H2657   1.085       .  S
C2647      C2648   1.391       .  A
C2647      H2658   1.084       .  S
C2648      C2649   1.400       .  A
C2648      H2659   1.084       .  S
C2649      C2650   1.422       .  A
C2649      C2654   1.407       .  A
C2650      C2651   1.420       .  A
C2651      C2652   1.408       .  A
C2651      H2660   1.078       .  S
C2652      C2653   1.400       .  A
C2652      H2661   1.083       .  S
C2653      C2654   1.401       .  A
C2654      H2662   1.085       .  S
C2663      C2664   1.401       .  A
C2663      C2668   1.408       .  A
C2664      C2665   1.403       .  A
C2664      H2677   1.084       .  S
C2665      C2666   1.418       .  A
C2665      H2678   1.078       .  S
C2666      C2672   1.437       .  A
C2666      C2667   1.421       .  A
C2667      C2669   1.403       .  A
C2667      C2668   1.413       .  A
C2668      H2679   1.084       .  S
C2669      C2670   1.396       .  A
C2669      H2680   1.084       .  S
C2670      C2671   1.401       .  A
C2670      H2681   1.084       .  S
C2671      C2672   1.425       .  A
C2671      C2676   1.416       .  A
C2672      C2673   1.414       .  A
C2673      C2674   1.398       .  A
C2673      H2682   1.078       .  S
C2674      C2675   1.400       .  A
C2674      H2683   1.084       .  S
C2675      C2676   1.405       .  A
C2676      H2684   1.084       .  S
C2685      C2686   1.406       .  A
C2685      C2690   1.402       .  A
C2686      C2687   1.398       .  A
C2686      H2699   1.083       .  S
C2687      C2688   1.412       .  A
C2687      H2700   1.077       .  S
C2688      C2694   1.437       .  A
C2688      C2689   1.426       .  A
C2689      C2691   1.399       .  A
C2689      C2690   1.415       .  A
C2690      H2701   1.084       .  S
C2691      C2692   1.392       .  A
C2691      H2702   1.084       .  S
C2692      C2693   1.401       .  A
C2692      H2703   1.084       .  S
C2693      C2694   1.421       .  A
C2693      C2698   1.407       .  A
C2694      C2695   1.421       .  A
C2695      C2696   1.405       .  A
C2695      H2704   1.077       .  S
C2696      C2697   1.399       .  A
C2696      H2705   1.083       .  S
C2697      C2698   1.402       .  A
C2698      H2706   1.085       .  S
C2707      C2708   1.399       .  A
C2707      C2712   1.401       .  A
C2708      C2709   1.405       .  A
C2708      H2721   1.083       .  S
C2709      C2710   1.420       .  A
C2709      H2722   1.078       .  S
C2710      C2716   1.438       .  A
C2710      C2711   1.422       .  A
C2711      C2713   1.400       .  A
C2711      C2712   1.407       .  A
C2712      H2723   1.085       .  S
C2713      C2714   1.391       .  A
C2713      H2724   1.084       .  S
C2714      C2715   1.399       .  A
C2714      H2725   1.084       .  S
C2715      C2716   1.425       .  A
C2715      C2720   1.412       .  A
C2716      C2717   1.414       .  A
C2717      C2718   1.400       .  A
C2717      H2726   1.078       .  S
C2718      C2719   1.406       .  A
C2718      H2727   1.083       .  S
C2719      C2720   1.402       .  A
C2720      H2728   1.084       .  S
C2729      C2730   1.401       .  A
C2729      C2734   1.401       .  A
C2730      C2731   1.407       .  A
C2730      H2743   1.083       .  S
C2731      C2732   1.420       .  A
C2731      H2744   1.078       .  S
C2732      C2738   1.441       .  A
C2732      C2733   1.423       .  A
C2733      C2735   1.400       .  A
C2733      C2734   1.408       .  A
C2734      H2745   1.085       .  S
C2735      C2736   1.391       .  A
C2735      H2746   1.084       .  S
C2736      C2737   1.400       .  A
C2736      H2747   1.084       .  S
C2737      C2738   1.425       .  A
C2737      C2742   1.413       .  A
C2738      C2739   1.416       .  A
C2739      C2740   1.405       .  A
C2739      H2748   1.078       .  S
C2740      C2741   1.405       .  A
C2740      H2749   1.083       .  S
C2741      C2742   1.404       .  A
C2742      H2750   1.084       .  S
C2751      C2752   1.403       .  A
C2751      C2756   1.405       .  A
C2752      C2753   1.402       .  A
C2752      H2765   1.083       .  S
C2753      C2754   1.415       .  A
C2753      H2766   1.078       .  S
C2754      C2760   1.441       .  A
C2754      C2755   1.425       .  A
C2755      C2757   1.400       .  A
C2755      C2756   1.415       .  A
C2756      H2767   1.084       .  S
C2757      C2758   1.394       .  A
C2757      H2768   1.084       .  S
C2758      C2759   1.401       .  A
C2758      H2769   1.084       .  S
C2759      C2760   1.422       .  A
C2759      C2764   1.413       .  A
C2760      C2761   1.418       .  A
C2761      C2762   1.405       .  A
C2761      H2770   1.078       .  S
C2762      C2763   1.403       .  A
C2762      H2771   1.083       .  S
C2763      C2764   1.407       .  A
C2764      H2772   1.084       .  S
C2773      C2774   1.396       .  A
C2773      C2778   1.398       .  A
C2774      C2775   1.398       .  A
C2774      H2787   1.083       .  S
C2775      C2776   1.418       .  A
C2775      H2788   1.077       .  S
C2776      C2782   1.421       .  A
C2776      C2777   1.420       .  A
C2777      C2779   1.398       .  A
C2777      C2778   1.388       .  A
C2778      H2789   1.086       .  S
C2779      C2780   1.381       .  A
C2779      H2790   1.084       .  S
C2780      C2781   1.395       .  A
C2780      H2791   1.085       .  S
C2781      C2782   1.423       .  A
C2781      C2786   1.390       .  A
C2782      C2783   1.414       .  A
C2783      C2784   1.394       .  A
C2783      H2792   1.078       .  S
C2784      C2785   1.397       .  A
C2784      H2793   1.084       .  S
C2785      C2786   1.389       .  A
C2786      H2794   1.080       .  S
C2795      C2796   1.396       .  A
C2795      C2800   1.399       .  A
C2796      C2797   1.399       .  A
C2796      H2809   1.083       .  S
C2797      C2798   1.419       .  A
C2797      H2810   1.078       .  S
C2798      C2804   1.423       .  A
C2798      C2799   1.420       .  A
C2799      C2801   1.398       .  A
C2799      C2800   1.389       .  A
C2800      H2811   1.085       .  S
C2801      C2802   1.383       .  A
C2801      H2812   1.084       .  S
C2802      C2803   1.396       .  A
C2802      H2813   1.085       .  S
C2803      C2804   1.423       .  A
C2803      C2808   1.393       .  A
C2804      C2805   1.414       .  A
C2805      C2806   1.395       .  A
C2805      H2814   1.078       .  S
C2806      C2807   1.397       .  A
C2806      H2815   1.084       .  S
C2807      C2808   1.390       .  A
C2808      H2816   1.079       .  S
C2817      C2818   1.393       .  A
C2817      C2822   1.397       .  A
C2818      C2819   1.398       .  A
C2818      H2831   1.084       .  S
C2819      C2820   1.420       .  A
C2819      H2832   1.075       .  S
C2820      C2826   1.426       .  A
C2820      C2821   1.420       .  A
C2821      C2823   1.400       .  A
C2821      C2822   1.396       .  A
C2822      H2833   1.084       .  S
C2823      C2824   1.388       .  A
C2823      H2834   1.084       .  S
C2824      C2825   1.398       .  A
C2824      H2835   1.083       .  S
C2825      C2826   1.426       .  A
C2825      C2830   1.403       .  A
C2826      C2827   1.413       .  A
C2827      C2828   1.392       .  A
C2827      H2836   1.075       .  S
C2828      C2829   1.395       .  A
C2828      H2837   1.085       .  S
C2829      C2830   1.394       .  A
C2830      H2838   1.083       .  S
C2839      C2840   1.406       .  A
C2839      C2844   1.405       .  A
C2840      C2841   1.397       .  A
C2840      H2853   1.083       .  S
C2841      C2842   1.411       .  A
C2841      H2854   1.078       .  S
C2842      C2848   1.438       .  A
C2842      C2843   1.426       .  A
C2843      C2845   1.400       .  A
C2843      C2844   1.417       .  A
C2844      H2855   1.084       .  S
C2845      C2846   1.395       .  A
C2845      H2856   1.084       .  S
C2846      C2847   1.402       .  A
C2846      H2857   1.084       .  S
C2847      C2848   1.421       .  A
C2847      C2852   1.411       .  A
C2848      C2849   1.420       .  A
C2849      C2850   1.403       .  A
C2849      H2858   1.077       .  S
C2850      C2851   1.398       .  A
C2850      H2859   1.083       .  S
C2851      C2852   1.404       .  A
C2852      H2860   1.085       .  S
C2861      C2862   1.403       .  A
C2861      C2866   1.410       .  A
C2862      C2863   1.405       .  A
C2862      H2875   1.083       .  S
C2863      C2864   1.418       .  A
C2863      H2876   1.077       .  S
C2864      C2870   1.441       .  A
C2864      C2865   1.421       .  A
C2865      C2867   1.403       .  A
C2865      C2866   1.415       .  A
C2866      H2877   1.084       .  S
C2867      C2868   1.396       .  A
C2867      H2878   1.084       .  S
C2868      C2869   1.401       .  A
C2868      H2879   1.084       .  S
C2869      C2870   1.425       .  A
C2869      C2874   1.417       .  A
C2870      C2871   1.415       .  A
C2871      C2872   1.401       .  A
C2871      H2880   1.077       .  S
C2872      C2873   1.401       .  A
C2872      H2881   1.084       .  S
C2873      C2874   1.404       .  A
C2874      H2882   1.083       .  S
C2883      C2884   1.406       .  A
C2883      C2888   1.406       .  A
C2884      C2885   1.406       .  A
C2884      H2897   1.083       .  S
C2885      C2886   1.416       .  A
C2885      H2898   1.078       .  S
C2886      C2892   1.442       .  A
C2886      C2887   1.424       .  A
C2887      C2889   1.400       .  A
C2887      C2888   1.413       .  A
C2888      H2899   1.084       .  S
C2889      C2890   1.392       .  A
C2889      H2900   1.084       .  S
C2890      C2891   1.400       .  A
C2890      H2901   1.084       .  S
C2891      C2892   1.423       .  A
C2891      C2896   1.409       .  A
C2892      C2893   1.420       .  A
C2893      C2894   1.408       .  A
C2893      H2902   1.078       .  S
C2894      C2895   1.401       .  A
C2894      H2903   1.083       .  S
C2895      C2896   1.401       .  A
C2896      H2904   1.085       .  S
C2905      C2906   1.397       .  A
C2905      C2910   1.401       .  A
C2906      C2907   1.403       .  A
C2906      H2919   1.083       .  S
C2907      C2908   1.420       .  A
C2907      H2920   1.078       .  S
C2908      C2914   1.436       .  A
C2908      C2909   1.421       .  A
C2909      C2911   1.401       .  A
C2909      C2910   1.406       .  A
C2910      H2921   1.085       .  S
C2911      C2912   1.392       .  A
C2911      H2922   1.084       .  S
C2912      C2913   1.400       .  A
C2912      H2923   1.084       .  S
C2913      C2914   1.426       .  A
C2913      C2918   1.414       .  A
C2914      C2915   1.412       .  A
C2915      C2916   1.397       .  A
C2915      H2924   1.078       .  S
C2916      C2917   1.406       .  A
C2916      H2925   1.083       .  S
C2917      C2918   1.403       .  A
C2918      H2926   1.084       .  S
C2927      C2928   1.400       .  A
C2927      C2932   1.399       .  A
C2928      C2929   1.407       .  A
C2928      H2941   1.083       .  S
C2929      C2930   1.421       .  A
C2929      H2942   1.077       .  S
C2930      C2936   1.440       .  A
C2930      C2931   1.423       .  A
C2931      C2933   1.399       .  A
C2931      C2932   1.406       .  A
C2932      H2943   1.085       .  S
C2933      C2934   1.390       .  A
C2933      H2944   1.084       .  S
C2934      C2935   1.399       .  A
C2934      H2945   1.084       .  S
C2935      C2936   1.425       .  A
C2935      C2940   1.411       .  A
C2936      C2937   1.415       .  A
C2937      C2938   1.404       .  A
C2937      H2946   1.077       .  S
C2938      C2939   1.405       .  A
C2938      H2947   1.083       .  S
C2939      C2940   1.403       .  A
C2940      H2948   1.085       .  S
C2949      C2950   1.400       .  A
C2949      C2954   1.408       .  A
C2950      C2951   1.406       .  A
C2950      H2963   1.083       .  S
C2951      C2952   1.421       .  A
C2951      H2964   1.077       .  S
C2952      C2958   1.437       .  A
C2952      C2953   1.419       .  A
C2953      C2955   1.402       .  A
C2953      C2954   1.406       .  A
C2954      H2965   1.084       .  S
C2955      C2956   1.392       .  A
C2955      H2966   1.084       .  S
C2956      C2957   1.399       .  A
C2956      H2967   1.084       .  S
C2957      C2958   1.427       .  A
C2957      C2962   1.413       .  A
C2958      C2959   1.413       .  A
C2959      C2960   1.397       .  A
C2959      H2968   1.077       .  S
C2960      C2961   1.401       .  A
C2960      H2969   1.084       .  S
C2961      C2962   1.401       .  A
C2962      H2970   1.084       .  S
C2971      C2972   1.402       .  A
C2971      C2976   1.409       .  A
C2972      C2973   1.407       .  A
C2972      H2985   1.083       .  S
C2973      C2974   1.420       .  A
C2973      H2986   1.078       .  S
C2974      C2980   1.441       .  A
C2974      C2975   1.421       .  A
C2975      C2977   1.402       .  A
C2975      C2976   1.410       .  A
C2976      H2987   1.084       .  S
C2977      C2978   1.393       .  A
C2977      H2988   1.084       .  S
C2978      C2979   1.399       .  A
C2978      H2989   1.084       .  S
C2979      C2980   1.426       .  A
C2979      C2984   1.415       .  A
C2980      C2981   1.415       .  A
C2981      C2982   1.402       .  A
C2981      H2990   1.078       .  S
C2982      C2983   1.401       .  A
C2982      H2991   1.083       .  S
C2983      C2984   1.402       .  A
C2984      H2992   1.084       .  S
C2993      C2994   1.400       .  A
C2993      C2998   1.407       .  A
C2994      C2995   1.380       .  A
C2994      H3007   1.084       .  S
C2995      C2996   1.405       .  A
C2995      H3008   1.080       .  S
C2996      C3002   1.409       .  A
C2996      C2997   1.417       .  A
C2997      C2999   1.405       .  A
C2997      C2998   1.411       .  A
C2998      H3009   1.084   1_554  S
C2999      C3000   1.402       .  A
C2999      H3010   1.083   1_554  S
C3000      C3001   1.404       .  A
C3000      H3011   1.084       .  S
C3001      C3002   1.417       .  A
C3001      C3006   1.411       .  A
C3002      C3003   1.405       .  A
C3003      C3004   1.380       .  A
C3003      H3012   1.081       .  S
C3004      C3005   1.400       .  A
C3004      H3013   1.082       .  S
C3005      C3006   1.406       .  A
C3006      H3014   1.085       .  S
C3015      C3016   1.392       .  A
C3015      C3020   1.395       .  A
C3016      C3017   1.395       .  A
C3016      H3029   1.084       .  S
C3017      C3018   1.419       .  A
C3017      H3030   1.077       .  S
C3018      C3024   1.422       .  A
C3018      C3019   1.421       .  A
C3019      C3021   1.398       .  A
C3019      C3020   1.393       .  A
C3020      H3031   1.086       .  S
C3021      C3022   1.385       .  A
C3021      H3032   1.085       .  S
C3022      C3023   1.397       .  A
C3022      H3033   1.084       .  S
C3023      C3024   1.426       .  A
C3023      C3028   1.398       .  A
C3024      C3025   1.413       .  A
C3025      C3026   1.389       .  A
C3025      H3034   1.077       .  S
C3026      C3027   1.394       .  A
C3026      H3035   1.084       .  S
C3027      C3028   1.390       .  A
C3028      H3036   1.083       .  S
C3037      C3038   1.404   1_655  A
C3037      C3042   1.406       .  A
C3038      C3039   1.407       .  A
C3038      H3051   1.084       .  S
C3039      C3040   1.419   1_455  A
C3039      H3052   1.075       .  S
C3040      C3046   1.440       .  A
C3040      C3041   1.421       .  A
C3041      C3043   1.401       .  A
C3041      C3042   1.409       .  A
C3042      H3053   1.082       .  S
C3043      C3044   1.391       .  A
C3043      H3054   1.081       .  S
C3044      C3045   1.398       .  A
C3044      H3055   1.087       .  S
C3045      C3046   1.427       .  A
C3045      C3050   1.413       .  A
C3046      C3047   1.415   1_655  A
C3047      C3048   1.401       .  A
C3047      H3056   1.078       .  S
C3048      C3049   1.402   1_455  A
C3048      H3057   1.083   1_554  S
C3049      C3050   1.399       .  A
C3050      H3058   1.087       .  S
C3059      C3060   1.406       .  A
C3059      C3064   1.405       .  A
C3060      C3061   1.406       .  A
C3060      H3073   1.083       .  S
C3061      C3062   1.416       .  A
C3061      H3074   1.078       .  S
C3062      C3068   1.444       .  A
C3062      C3063   1.425       .  A
C3063      C3065   1.400       .  A
C3063      C3064   1.415       .  A
C3064      H3075   1.084       .  S
C3065      C3066   1.392       .  A
C3065      H3076   1.084       .  S
C3066      C3067   1.400       .  A
C3066      H3077   1.084       .  S
C3067      C3068   1.423       .  A
C3067      C3072   1.411       .  A
C3068      C3069   1.421       .  A
C3069      C3070   1.410       .  A
C3069      H3078   1.078       .  S
C3070      C3071   1.401       .  A
C3070      H3079   1.083       .  S
C3071      C3072   1.402       .  A
C3072      H3080   1.085       .  S
C3081      C3082   1.404       .  A
C3081      C3086   1.405       .  A
C3082      C3083   1.401       .  A
C3082      H3095   1.083       .  S
C3083      C3084   1.415       .  A
C3083      H3096   1.077       .  S
C3084      C3090   1.439       .  A
C3084      C3085   1.425       .  A
C3085      C3087   1.401       .  A
C3085      C3086   1.415       .  A
C3086      H3097   1.084       .  S
C3087      C3088   1.393       .  A
C3087      H3098   1.084       .  S
C3088      C3089   1.401       .  A
C3088      H3099   1.084       .  S
C3089      C3090   1.422       .  A
C3089      C3094   1.410       .  A
C3090      C3091   1.420       .  A
C3091      C3092   1.404       .  A
C3091      H3100   1.077       .  S
C3092      C3093   1.399       .  A
C3092      H3101   1.083       .  S
C3093      C3094   1.403       .  A
C3094      H3102   1.084       .  S
C3103      C3104   1.398       .  A
C3103      C3108   1.396       .  A
C3104      C3105   1.399       .  A
C3104      H3117   1.083       .  S
C3105      C3106   1.417       .  A
C3105      H3118   1.078       .  S
C3106      C3112   1.423       .  A
C3106      C3107   1.421       .  A
C3107      C3109   1.396       .  A
C3107      C3108   1.387       .  A
C3108      H3119   1.086       .  S
C3109      C3110   1.379       .  A
C3109      H3120   1.084       .  S
C3110      C3111   1.395       .  A
C3110      H3121   1.084       .  S
C3111      C3112   1.422       .  A
C3111      C3116   1.388       .  A
C3112      C3113   1.417       .  A
C3113      C3114   1.398       .  A
C3113      H3122   1.078       .  S
C3114      C3115   1.397       .  A
C3114      H3123   1.083       .  S
C3115      C3116   1.394       .  A
C3116      H3124   1.086       .  S
C3125      C3126   1.393       .  A
C3125      C3130   1.399       .  A
C3126      C3127   1.398       .  A
C3126      H3139   1.083       .  S
C3127      C3128   1.420       .  A
C3127      H3140   1.078       .  S
C3128      C3134   1.422       .  A
C3128      C3129   1.419       .  A
C3129      C3131   1.399       .  A
C3129      C3130   1.389       .  A
C3130      H3141   1.085       .  S
C3131      C3132   1.383       .  A
C3131      H3142   1.085       .  S
C3132      C3133   1.397       .  A
C3132      H3143   1.084       .  S
C3133      C3134   1.424       .  A
C3133      C3138   1.394       .  A
C3134      C3135   1.414       .  A
C3135      C3136   1.392       .  A
C3135      H3144   1.078       .  S
C3136      C3137   1.395       .  A
C3136      H3145   1.084       .  S
C3137      C3138   1.389       .  A
C3138      H3146   1.076       .  S
C3147      C3148   1.397       .  A
C3147      C3152   1.390       .  A
C3148      C3149   1.399       .  A
C3148      H3161   1.083       .  S
C3149      C3150   1.416       .  A
C3149      H3162   1.078       .  S
C3150      C3156   1.425       .  A
C3150      C3151   1.422       .  A
C3151      C3153   1.395       .  A
C3151      C3152   1.389       .  A
C3152      H3163   1.079       .  S
C3153      C3154   1.380       .  A
C3153      H3164   1.084       .  S
C3154      C3155   1.397       .  A
C3154      H3165   1.084       .  S
C3155      C3156   1.420       .  A
C3155      C3160   1.389       .  A
C3156      C3157   1.418       .  A
C3157      C3158   1.401       .  A
C3157      H3166   1.078       .  S
C3158      C3159   1.398       .  A
C3158      H3167   1.083       .  S
C3159      C3160   1.399       .  A
C3160      H3168   1.085       .  S
C3169      C3170   1.399       .  A
C3169      C3174   1.396       .  A
C3170      C3171   1.399       .  A
C3170      H3183   1.083       .  S
C3171      C3172   1.417       .  A
C3171      H3184   1.078       .  S
C3172      C3178   1.423       .  A
C3172      C3173   1.421       .  A
C3173      C3175   1.396       .  A
C3173      C3174   1.386       .  A
C3174      H3185   1.086       .  S
C3175      C3176   1.378       .  A
C3175      H3186   1.085       .  S
C3176      C3177   1.395       .  A
C3176      H3187   1.085       .  S
C3177      C3178   1.422       .  A
C3177      C3182   1.386       .  A
C3178      C3179   1.417       .  A
C3179      C3180   1.398       .  A
C3179      H3188   1.078       .  S
C3180      C3181   1.397       .  A
C3180      H3189   1.083       .  S
C3181      C3182   1.393       .  A
C3182      H3190   1.085       .  S
C3191      C3192   1.403       .  A
C3191      C3196   1.404       .  A
C3192      C3193   1.401       .  A
C3192      H3205   1.084       .  S
C3193      C3194   1.415       .  A
C3193      H3206   1.077       .  S
C3194      C3200   1.439       .  A
C3194      C3195   1.425       .  A
C3195      C3197   1.400       .  A
C3195      C3196   1.415       .  A
C3196      H3207   1.084       .  S
C3197      C3198   1.393       .  A
C3197      H3208   1.084       .  S
C3198      C3199   1.401       .  A
C3198      H3209   1.084       .  S
C3199      C3200   1.422       .  A
C3199      C3204   1.409       .  A
C3200      C3201   1.420       .  A
C3201      C3202   1.405       .  A
C3201      H3210   1.077       .  S
C3202      C3203   1.400       .  A
C3202      H3211   1.083       .  S
C3203      C3204   1.404       .  A
C3204      H3212   1.084       .  S
C3213      C3214   1.405       .  A
C3213      C3218   1.405       .  A
C3214      C3215   1.400       .  A
C3214      H3227   1.083       .  S
C3215      C3216   1.413       .  A
C3215      H3228   1.078       .  S
C3216      C3222   1.438       .  A
C3216      C3217   1.425       .  A
C3217      C3219   1.400       .  A
C3217      C3218   1.415       .  A
C3218      H3229   1.084       .  S
C3219      C3220   1.393       .  A
C3219      H3230   1.084       .  S
C3220      C3221   1.401       .  A
C3220      H3231   1.084       .  S
C3221      C3222   1.422       .  A
C3221      C3226   1.409       .  A
C3222      C3223   1.420       .  A
C3223      C3224   1.404       .  A
C3223      H3232   1.077       .  S
C3224      C3225   1.399       .  A
C3224      H3233   1.083       .  S
C3225      C3226   1.403       .  A
C3226      H3234   1.085       .  S
C3235      C3236   1.401   1_554  A
C3235      C3240   1.409       .  A
C3236      C3237   1.408   1_556  A
C3236      H3249   1.083       .  S
C3237      C3238   1.421       .  A
C3237      H3250   1.077   1_554  S
C3238      C3244   1.438       .  A
C3238      C3239   1.419       .  A
C3239      C3241   1.401       .  A
C3239      C3240   1.406       .  A
C3240      H3251   1.084       .  S
C3241      C3242   1.391       .  A
C3241      H3252   1.084       .  S
C3242      C3243   1.398       .  A
C3242      H3253   1.084       .  S
C3243      C3244   1.427       .  A
C3243      C3248   1.412       .  A
C3244      C3245   1.414       .  A
C3245      C3246   1.400       .  A
C3245      H3254   1.078   1_554  S
C3246      C3247   1.402       .  A
C3246      H3255   1.084   1_564  S
C3247      C3248   1.400       .  A
C3248      H3256   1.084       .  S
C3257      C3258   1.396       .  A
C3257      C3262   1.389       .  A
C3258      C3259   1.395       .  A
C3258      H3271   1.084   1_455  S
C3259      C3260   1.414       .  A
C3259      H3272   1.078   1_455  S
C3260      C3266   1.424       .  A
C3260      C3261   1.425       .  A
C3261      C3263   1.396       .  A
C3261      C3262   1.394       .  A
C3262      H3273   1.077       .  S
C3263      C3264   1.382       .  A
C3263      H3274   1.085       .  S
C3264      C3265   1.398       .  A
C3264      H3275   1.084       .  S
C3265      C3266   1.419       .  A
C3265      C3270   1.389       .  A
C3266      C3267   1.421       .  A
C3267      C3268   1.401       .  A
C3267      H3276   1.078       .  S
C3268      C3269   1.395       .  A
C3268      H3277   1.083       .  S
C3269      C3270   1.399       .  A
C3270      H3278   1.086       .  S
C3279      C3280   1.398       .  A
C3279      C3284   1.395       .  A
C3280      C3281   1.396       .  A
C3280      H3293   1.083       .  S
C3281      C3282   1.415       .  A
C3281      H3294   1.078       .  S
C3282      C3288   1.422       .  A
C3282      C3283   1.423       .  A
C3283      C3285   1.395       .  A
C3283      C3284   1.389       .  A
C3284      H3295   1.085       .  S
C3285      C3286   1.380       .  A
C3285      H3296   1.084       .  S
C3286      C3287   1.397       .  A
C3286      H3297   1.084       .  S
C3287      C3288   1.420       .  A
C3287      C3292   1.387       .  A
C3288      C3289   1.418       .  A
C3289      C3290   1.398       .  A
C3289      H3298   1.077       .  S
C3290      C3291   1.397       .  A
C3290      H3299   1.083       .  S
C3291      C3292   1.397       .  A
C3292      H3300   1.086       .  S
C3301      C3302   1.398       .  A
C3301      C3306   1.396       .  A
C3302      C3303   1.398       .  A
C3302      H3315   1.083       .  S
C3303      C3304   1.416       .  A
C3303      H3316   1.078       .  S
C3304      C3310   1.424       .  A
C3304      C3305   1.422       .  A
C3305      C3307   1.396       .  A
C3305      C3306   1.391       .  A
C3306      H3317   1.086       .  S
C3307      C3308   1.381       .  A
C3307      H3318   1.084       .  S
C3308      C3309   1.397       .  A
C3308      H3319   1.084       .  S
C3309      C3310   1.421       .  A
C3309      C3314   1.389       .  A
C3310      C3311   1.418       .  A
C3311      C3312   1.399       .  A
C3311      H3320   1.078       .  S
C3312      C3313   1.398       .  A
C3312      H3321   1.083       .  S
C3313      C3314   1.398       .  A
C3314      H3322   1.086       .  S
C3323      C3324   1.397       .  A
C3323      C3328   1.391       .  A
C3324      C3325   1.396       .  A
C3324      H3337   1.084       .  S
C3325      C3326   1.414       .  A
C3325      H3338   1.077       .  S
C3326      C3332   1.426       .  A
C3326      C3327   1.425       .  A
C3327      C3329   1.396       .  A
C3327      C3328   1.397       .  A
C3328      H3339   1.081       .  S
C3329      C3330   1.384       .  A
C3329      H3340   1.085       .  S
C3330      C3331   1.398       .  A
C3330      H3341   1.084       .  S
C3331      C3332   1.420       .  A
C3331      C3336   1.391       .  A
C3332      C3333   1.420       .  A
C3333      C3334   1.401       .  A
C3333      H3342   1.077       .  S
C3334      C3335   1.396       .  A
C3334      H3343   1.083       .  S
C3335      C3336   1.398       .  A
C3336      H3344   1.086       .  S
C3345      C3346   1.400       .  A
C3345      C3350   1.402       .  A
C3346      C3347   1.400       .  A
C3346      H3359   1.084       .  S
C3347      C3348   1.414       .  A
C3347      H3360   1.078       .  S
C3348      C3354   1.439       .  A
C3348      C3349   1.426       .  A
C3349      C3351   1.400       .  A
C3349      C3350   1.416       .  A
C3350      H3361   1.084       .  S
C3351      C3352   1.394       .  A
C3351      H3362   1.084       .  S
C3352      C3353   1.402       .  A
C3352      H3363   1.084       .  S
C3353      C3354   1.421       .  A
C3353      C3358   1.410       .  A
C3354      C3355   1.419       .  A
C3355      C3356   1.406       .  A
C3355      H3364   1.078       .  S
C3356      C3357   1.402       .  A
C3356      H3365   1.083       .  S
C3357      C3358   1.408       .  A
C3358      H3366   1.084       .  S
C3367      C3368   1.400       .  A
C3367      C3372   1.400       .  A
C3368      C3369   1.397       .  A
C3368      H3381   1.083   1_455  S
C3369      C3370   1.414       .  A
C3369      H3382   1.077   1_455  S
C3370      C3376   1.435       .  A
C3370      C3371   1.425       .  A
C3371      C3373   1.399       .  A
C3371      C3372   1.411       .  A
C3372      H3383   1.084       .  S
C3373      C3374   1.392       .  A
C3373      H3384   1.084       .  S
C3374      C3375   1.401       .  A
C3374      H3385   1.084       .  S
C3375      C3376   1.421       .  A
C3375      C3380   1.409       .  A
C3376      C3377   1.417       .  A
C3377      C3378   1.402       .  A
C3377      H3386   1.077   1_455  S
C3378      C3379   1.402       .  A
C3378      H3387   1.083   1_455  S
C3379      C3380   1.406       .  A
C3380      H3388   1.084       .  S
C3389      C3390   1.405       .  A
C3389      C3394   1.403       .  A
C3390      C3391   1.401       .  A
C3390      H3403   1.083       .  S
C3391      C3392   1.414       .  A
C3391      H3404   1.078       .  S
C3392      C3398   1.437       .  A
C3392      C3393   1.425       .  A
C3393      C3395   1.399       .  A
C3393      C3394   1.411       .  A
C3394      H3405   1.084       .  S
C3395      C3396   1.391       .  A
C3395      H3406   1.084       .  S
C3396      C3397   1.400       .  A
C3396      H3407   1.084       .  S
C3397      C3398   1.422       .  A
C3397      C3402   1.406       .  A
C3398      C3399   1.420       .  A
C3399      C3400   1.404       .  A
C3399      H3408   1.078       .  S
C3400      C3401   1.399       .  A
C3400      H3409   1.083       .  S
C3401      C3402   1.400       .  A
C3402      H3410   1.085       .  S
C3411      C3412   1.399       .  A
C3411      C3416   1.402       .  A
C3412      C3413   1.405       .  A
C3412      H3425   1.083       .  S
C3413      C3414   1.420       .  A
C3413      H3426   1.077       .  S
C3414      C3420   1.437       .  A
C3414      C3415   1.422       .  A
C3415      C3417   1.400       .  A
C3415      C3416   1.407       .  A
C3416      H3427   1.085       .  S
C3417      C3418   1.391       .  A
C3417      H3428   1.084       .  S
C3418      C3419   1.399       .  A
C3418      H3429   1.084       .  S
C3419      C3420   1.425       .  A
C3419      C3424   1.411       .  A
C3420      C3421   1.414       .  A
C3421      C3422   1.400       .  A
C3421      H3430   1.077       .  S
C3422      C3423   1.403       .  A
C3422      H3431   1.083       .  S
C3423      C3424   1.401       .  A
C3424      H3432   1.084       .  S
C3433      C3434   1.402       .  A
C3433      C3438   1.406       .  A
C3434      C3435   1.404       .  A
C3434      H3447   1.083       .  S
C3435      C3436   1.418       .  A
C3435      H3448   1.077       .  S
C3436      C3442   1.437       .  A
C3436      C3437   1.421       .  A
C3437      C3439   1.401       .  A
C3437      C3438   1.408       .  A
C3438      H3449   1.084       .  S
C3439      C3440   1.391       .  A
C3439      H3450   1.084       .  S
C3440      C3441   1.398       .  A
C3440      H3451   1.084       .  S
C3441      C3442   1.426       .  A
C3441      C3446   1.410       .  A
C3442      C3443   1.415       .  A
C3443      C3444   1.399       .  A
C3443      H3452   1.077       .  S
C3444      C3445   1.401       .  A
C3444      H3453   1.083   1_545  S
C3445      C3446   1.399       .  A
C3446      H3454   1.085       .  S
C3455      C3456   1.398       .  A
C3455      C3460   1.399   1_565  A
C3456      C3457   1.404       .  A
C3456      H3469   1.083       .  S
C3457      C3458   1.421       .  A
C3457      H3470   1.077       .  S
C3458      C3464   1.436       .  A
C3458      C3459   1.421       .  A
C3459      C3461   1.399   1_565  A
C3459      C3460   1.404   1_565  A
C3460      H3471   1.085       .  S
C3461      C3462   1.390       .  A
C3461      H3472   1.084       .  S
C3462      C3463   1.399   1_545  A
C3462      H3473   1.084       .  S
C3463      C3464   1.425       .  A
C3463      C3468   1.411       .  A
C3464      C3465   1.413       .  A
C3465      C3466   1.399       .  A
C3465      H3474   1.077       .  S
C3466      C3467   1.405       .  A
C3466      H3475   1.083       .  S
C3467      C3468   1.402       .  A
C3468      H3476   1.084   1_565  S
C3477      C3478   1.401       .  A
C3477      C3482   1.401   1_455  A
C3478      C3479   1.407       .  A
C3478      H3491   1.083       .  S
C3479      C3480   1.420       .  A
C3479      H3492   1.078       .  S
C3480      C3486   1.441       .  A
C3480      C3481   1.422   1_455  A
C3481      C3483   1.400       .  A
C3481      C3482   1.408       .  A
C3482      H3493   1.085       .  S
C3483      C3484   1.391       .  A
C3483      H3494   1.084       .  S
C3484      C3485   1.399       .  A
C3484      H3495   1.084       .  S
C3485      C3486   1.425   1_655  A
C3485      C3490   1.413       .  A
C3486      C3487   1.415       .  A
C3487      C3488   1.404       .  A
C3487      H3496   1.078       .  S
C3488      C3489   1.406       .  A
C3488      H3497   1.083       .  S
C3489      C3490   1.403   1_455  A
C3490      H3498   1.085       .  S
C3499      C3500   1.401   1_655  A
C3499      C3504   1.406       .  A
C3500      C3501   1.402       .  A
C3500      H3513   1.083       .  S
C3501      C3502   1.418   1_455  A
C3501      H3514   1.078       .  S
C3502      C3508   1.436       .  A
C3502      C3503   1.421       .  A
C3503      C3505   1.401       .  A
C3503      C3504   1.407       .  A
C3504      H3515   1.084       .  S
C3505      C3506   1.392       .  A
C3505      H3516   1.084       .  S
C3506      C3507   1.399       .  A
C3506      H3517   1.084       .  S
C3507      C3508   1.426       .  A
C3507      C3512   1.412       .  A
C3508      C3509   1.414   1_655  A
C3509      C3510   1.398       .  A
C3509      H3518   1.077       .  S
C3510      C3511   1.399   1_455  A
C3510      H3519   1.084       .  S
C3511      C3512   1.400       .  A
C3512      H3520   1.084       .  S
C3521      C3522   1.396       .  A
C3521      C3526   1.398       .  A
C3522      C3523   1.400       .  A
C3522      H3535   1.083       .  S
C3523      C3524   1.419       .  A
C3523      H3536   1.078       .  S
C3524      C3530   1.425       .  A
C3524      C3525   1.421       .  A
C3525      C3527   1.398       .  A
C3525      C3526   1.391       .  A
C3526      H3537   1.086       .  S
C3527      C3528   1.383       .  A
C3527      H3538   1.085       .  S
C3528      C3529   1.397       .  A
C3528      H3539   1.084       .  S
C3529      C3530   1.423       .  A
C3529      C3534   1.393       .  A
C3530      C3531   1.416       .  A
C3531      C3532   1.397       .  A
C3531      H3540   1.078       .  S
C3532      C3533   1.397       .  A
C3532      H3541   1.083   1_655  S
C3533      C3534   1.389       .  A
C3534      H3542   1.074       .  S
C3543      C3544   1.397       .  A
C3543      C3548   1.398       .  A
C3544      C3545   1.401       .  A
C3544      H3557   1.083       .  S
C3545      C3546   1.419       .  A
C3545      H3558   1.078       .  S
C3546      C3552   1.424       .  A
C3546      C3547   1.420       .  A
C3547      C3549   1.397       .  A
C3547      C3548   1.388       .  A
C3548      H3559   1.085       .  S
C3549      C3550   1.381       .  A
C3549      H3560   1.084       .  S
C3550      C3551   1.396       .  A
C3550      H3561   1.084       .  S
C3551      C3552   1.422       .  A
C3551      C3556   1.391       .  A
C3552      C3553   1.415       .  A
C3553      C3554   1.398       .  A
C3553      H3562   1.078       .  S
C3554      C3555   1.397       .  A
C3554      H3563   1.084   1_545  S
C3555      C3556   1.390       .  A
C3556      H3564   1.077       .  S
C3565      C3566   1.393       .  A
C3565      C3570   1.397       .  A
C3566      C3567   1.398       .  A
C3566      H3579   1.083       .  S
C3567      C3568   1.420       .  A
C3567      H3580   1.077       .  S
C3568      C3574   1.424       .  A
C3568      C3569   1.420       .  A
C3569      C3571   1.399       .  A
C3569      C3570   1.392       .  A
C3570      H3581   1.085       .  S
C3571      C3572   1.385       .  A
C3571      H3582   1.084       .  S
C3572      C3573   1.397       .  A
C3572      H3583   1.084       .  S
C3573      C3574   1.426       .  A
C3573      C3578   1.399       .  A
C3574      C3575   1.413       .  A
C3575      C3576   1.392       .  A
C3575      H3584   1.077       .  S
C3576      C3577   1.395       .  A
C3576      H3585   1.084       .  S
C3577      C3578   1.391       .  A
C3578      H3586   1.083       .  S
C3587      C3588   1.395       .  A
C3587      C3592   1.390       .  A
C3588      C3589   1.393       .  A
C3588      H3601   1.084       .  S
C3589      C3590   1.414       .  A
C3589      H3602   1.078       .  S
C3590      C3596   1.423       .  A
C3590      C3591   1.424       .  A
C3591      C3593   1.396       .  A
C3591      C3592   1.394       .  A
C3592      H3603   1.078       .  S
C3593      C3594   1.383       .  A
C3593      H3604   1.085       .  S
C3594      C3595   1.398       .  A
C3594      H3605   1.084       .  S
C3595      C3596   1.420       .  A
C3595      C3600   1.390       .  A
C3596      C3597   1.419       .  A
C3597      C3598   1.397       .  A
C3597      H3606   1.078       .  S
C3598      C3599   1.395       .  A
C3598      H3607   1.083       .  S
C3599      C3600   1.398       .  A
C3600      H3608   1.085       .  S
C3609      C3610   1.406       .  A
C3609      C3614   1.405       .  A
C3610      C3611   1.406       .  A
C3610      H3623   1.083       .  S
C3611      C3612   1.416       .  A
C3611      H3624   1.078       .  S
C3612      C3618   1.442       .  A
C3612      C3613   1.424       .  A
C3613      C3615   1.400       .  A
C3613      C3614   1.413       .  A
C3614      H3625   1.084       .  S
C3615      C3616   1.391       .  A
C3615      H3626   1.084       .  S
C3616      C3617   1.400       .  A
C3616      H3627   1.084       .  S
C3617      C3618   1.423       .  A
C3617      C3622   1.409       .  A
C3618      C3619   1.420       .  A
C3619      C3620   1.409       .  A
C3619      H3628   1.077       .  S
C3620      C3621   1.402       .  A
C3620      H3629   1.083       .  S
C3621      C3622   1.402       .  A
C3622      H3630   1.085       .  S
C3631      C3632   1.401       .  A
C3631      C3636   1.409       .  A
C3632      C3633   1.405       .  A
C3632      H3645   1.083       .  S
C3633      C3634   1.420       .  A
C3633      H3646   1.078       .  S
C3634      C3640   1.438       .  A
C3634      C3635   1.420       .  A
C3635      C3637   1.402       .  A
C3635      C3636   1.408       .  A
C3636      H3647   1.084       .  S
C3637      C3638   1.393       .  A
C3637      H3648   1.084       .  S
C3638      C3639   1.400       .  A
C3638      H3649   1.084       .  S
C3639      C3640   1.426       .  A
C3639      C3644   1.414       .  A
C3640      C3641   1.413       .  A
C3641      C3642   1.398       .  A
C3641      H3650   1.078       .  S
C3642      C3643   1.401       .  A
C3642      H3651   1.084       .  S
C3643      C3644   1.402       .  A
C3644      H3652   1.084       .  S
C3653      C3654   1.400       .  A
C3653      C3658   1.403       .  A
C3654      C3655   1.395       .  A
C3654      H3667   1.084   1_645  S
C3655      C3656   1.413       .  A
C3655      H3668   1.077       .  S
C3656      C3662   1.435       .  A
C3656      C3657   1.426       .  A
C3657      C3659   1.400       .  A
C3657      C3658   1.414       .  A
C3658      H3669   1.084       .  S
C3659      C3660   1.394       .  A
C3659      H3670   1.084       .  S
C3660      C3661   1.402       .  A
C3660      H3671   1.084       .  S
C3661      C3662   1.420       .  A
C3661      C3666   1.409       .  A
C3662      C3663   1.419       .  A
C3663      C3664   1.402       .  A
C3663      H3672   1.077       .  S
C3664      C3665   1.400       .  A
C3664      H3673   1.083       .  S
C3665      C3666   1.409       .  A
C3666      H3674   1.084       .  S
C3675      C3676   1.395       .  A
C3675      C3680   1.398       .  A
C3676      C3677   1.401       .  A
C3676      H3689   1.083       .  S
C3677      C3678   1.421       .  A
C3677      H3690   1.078       .  S
C3678      C3684   1.424       .  A
C3678      C3679   1.419       .  A
C3679      C3681   1.399       .  A
C3679      C3680   1.390       .  A
C3680      H3691   1.085       .  S
C3681      C3682   1.384       .  A
C3681      H3692   1.084       .  S
C3682      C3683   1.396       .  A
C3682      H3693   1.085       .  S
C3683      C3684   1.426       .  A
C3683      C3688   1.397       .  A
C3684      C3685   1.413       .  A
C3685      C3686   1.394       .  A
C3685      H3694   1.078       .  S
C3686      C3687   1.396       .  A
C3686      H3695   1.084   1_556  S
C3687      C3688   1.390       .  A
C3688      H3696   1.082       .  S
C3697      C3698   1.397       .  A
C3697      C3702   1.403       .  A
C3698      C3699   1.380       .  A
C3698      H3711   1.084       .  S
C3699      C3700   1.408       .  A
C3699      H3712   1.079       .  S
C3700      C3706   1.410       .  A
C3700      C3701   1.418       .  A
C3701      C3703   1.403       .  A
C3701      C3702   1.407       .  A
C3702      H3713   1.084       .  S
C3703      C3704   1.398       .  A
C3703      H3714   1.084       .  S
C3704      C3705   1.402       .  A
C3704      H3715   1.084       .  S
C3705      C3706   1.419       .  A
C3705      C3710   1.408       .  A
C3706      C3707   1.406       .  A
C3707      C3708   1.378       .  A
C3707      H3716   1.079       .  S
C3708      C3709   1.398       .  A
C3708      H3717   1.082       .  S
C3709      C3710   1.402       .  A
C3710      H3718   1.084       .  S
C3719      C3720   1.393       .  A
C3719      C3724   1.398       .  A
C3720      C3721   1.396       .  A
C3720      H3733   1.083       .  S
C3721      C3722   1.419       .  A
C3721      H3734   1.078       .  S
C3722      C3728   1.423       .  A
C3722      C3723   1.420       .  A
C3723      C3725   1.400       .  A
C3723      C3724   1.396       .  A
C3724      H3735   1.085       .  S
C3725      C3726   1.388       .  A
C3725      H3736   1.084       .  S
C3726      C3727   1.398       .  A
C3726      H3737   1.084       .  S
C3727      C3728   1.426       .  A
C3727      C3732   1.402       .  A
C3728      C3729   1.412       .  A
C3729      C3730   1.390       .  A
C3729      H3738   1.077       .  S
C3730      C3731   1.395       .  A
C3730      H3739   1.084       .  S
C3731      C3732   1.393       .  A
C3732      H3740   1.084       .  S
C3741      C3742   1.398       .  A
C3741      C3746   1.400       .  A
C3742      C3743   1.402       .  A
C3742      H3755   1.083       .  S
C3743      C3744   1.420       .  A
C3743      H3756   1.078       .  S
C3744      C3750   1.423       .  A
C3744      C3745   1.418       .  A
C3745      C3747   1.397       .  A
C3745      C3746   1.384       .  A
C3746      H3757   1.085       .  S
C3747      C3748   1.378       .  A
C3747      H3758   1.085       .  S
C3748      C3749   1.394       .  A
C3748      H3759   1.085       .  S
C3749      C3750   1.424       .  A
C3749      C3754   1.388       .  A
C3750      C3751   1.415       .  A
C3751      C3752   1.397       .  A
C3751      H3760   1.078       .  S
C3752      C3753   1.398       .  A
C3752      H3761   1.083   1_556  S
C3753      C3754   1.389       .  A
C3754      H3762   1.083       .  S
C3763      C3764   1.406       .  A
C3763      C3768   1.404       .  A
C3764      C3765   1.400       .  A
C3764      H3777   1.083       .  S
C3765      C3766   1.414       .  A
C3765      H3778   1.077       .  S
C3766      C3772   1.438       .  A
C3766      C3767   1.425       .  A
C3767      C3769   1.400       .  A
C3767      C3768   1.414       .  A
C3768      H3779   1.084       .  S
C3769      C3770   1.393       .  A
C3769      H3780   1.084       .  S
C3770      C3771   1.401       .  A
C3770      H3781   1.084       .  S
C3771      C3772   1.422       .  A
C3771      C3776   1.410       .  A
C3772      C3773   1.419       .  A
C3773      C3774   1.404       .  A
C3773      H3782   1.077       .  S
C3774      C3775   1.400       .  A
C3774      H3783   1.083       .  S
C3775      C3776   1.403       .  A
C3776      H3784   1.084       .  S
C3785      C3786   1.402       .  A
C3785      C3790   1.407       .  A
C3786      C3787   1.403       .  A
C3786      H3799   1.083   1_455  S
C3787      C3788   1.418       .  A
C3787      H3800   1.078   1_455  S
C3788      C3794   1.438       .  A
C3788      C3789   1.421       .  A
C3789      C3791   1.401       .  A
C3789      C3790   1.410       .  A
C3790      H3801   1.084       .  S
C3791      C3792   1.393       .  A
C3791      H3802   1.084       .  S
C3792      C3793   1.399       .  A
C3792      H3803   1.084       .  S
C3793      C3794   1.426       .  A
C3793      C3798   1.413       .  A
C3794      C3795   1.415       .  A
C3795      C3796   1.399   1_455  A
C3795      H3804   1.078   1_455  S
C3796      C3797   1.400   1_655  A
C3796      H3805   1.083   1_556  S
C3797      C3798   1.400       .  A
C3798      H3806   1.084       .  S
C3807      C3808   1.406       .  A
C3807      C3812   1.404       .  A
C3808      C3809   1.403       .  A
C3808      H3821   1.083       .  S
C3809      C3810   1.414       .  A
C3809      H3822   1.078       .  S
C3810      C3816   1.442       .  A
C3810      C3811   1.426       .  A
C3811      C3813   1.400       .  A
C3811      C3812   1.415       .  A
C3812      H3823   1.084       .  S
C3813      C3814   1.393       .  A
C3813      H3824   1.084       .  S
C3814      C3815   1.401       .  A
C3814      H3825   1.084       .  S
C3815      C3816   1.422       .  A
C3815      C3820   1.410       .  A
C3816      C3817   1.421       .  A
C3817      C3818   1.408       .  A
C3817      H3826   1.078       .  S
C3818      C3819   1.401       .  A
C3818      H3827   1.083       .  S
C3819      C3820   1.403       .  A
C3820      H3828   1.085       .  S
C3829      C3830   1.400   1_554  A
C3829      C3834   1.404       .  A
C3830      C3831   1.400   1_556  A
C3830      H3843   1.084   1_545  S
C3831      C3832   1.415       .  A
C3831      H3844   1.077   1_554  S
C3832      C3838   1.440       .  A
C3832      C3833   1.425       .  A
C3833      C3835   1.401       .  A
C3833      C3834   1.417       .  A
C3834      H3845   1.084       .  S
C3835      C3836   1.395       .  A
C3835      H3846   1.084       .  S
C3836      C3837   1.402       .  A
C3836      H3847   1.084       .  S
C3837      C3838   1.422       .  A
C3837      C3842   1.415       .  A
C3838      C3839   1.418       .  A
C3839      C3840   1.404       .  A
C3839      H3848   1.077   1_554  S
C3840      C3841   1.403       .  A
C3840      H3849   1.083   1_554  S
C3841      C3842   1.409       .  A
C3842      H3850   1.084       .  S
C3851      C3852   1.402       .  A
C3851      C3856   1.403   1_545  A
C3852      C3853   1.410       .  A
C3852      H3865   1.083       .  S
C3853      C3854   1.421       .  A
C3853      H3866   1.078       .  S
C3854      C3860   1.444       .  A
C3854      C3855   1.423   1_545  A
C3855      C3857   1.400       .  A
C3855      C3856   1.412       .  A
C3856      H3867   1.085   1_455  S
C3857      C3858   1.392       .  A
C3857      H3868   1.084   1_455  S
C3858      C3859   1.400   1_565  A
C3858      H3869   1.084       .  S
C3859      C3860   1.425       .  A
C3859      C3864   1.415       .  A
C3860      C3861   1.416       .  A
C3861      C3862   1.406       .  A
C3861      H3870   1.078       .  S
C3862      C3863   1.407       .  A
C3862      H3871   1.083       .  S
C3863      C3864   1.405       .  A
C3864      H3872   1.084   1_545  S
C3873      C3874   1.401       .  A
C3873      C3878   1.403       .  A
C3874      C3875   1.408       .  A
C3874      H3887   1.083       .  S
C3875      C3876   1.421       .  A
C3875      H3888   1.077       .  S
C3876      C3882   1.442       .  A
C3876      C3877   1.422       .  A
C3877      C3879   1.401   1_455  A
C3877      C3878   1.411       .  A
C3878      H3889   1.085   1_454  S
C3879      C3880   1.393       .  A
C3879      H3890   1.084   1_554  S
C3880      C3881   1.400   1_655  A
C3880      H3891   1.084       .  S
C3881      C3882   1.426       .  A
C3881      C3886   1.417       .  A
C3882      C3883   1.414       .  A
C3883      C3884   1.403       .  A
C3883      H3892   1.077       .  S
C3884      C3885   1.408       .  A
C3884      H3893   1.083       .  S
C3885      C3886   1.404       .  A
C3886      H3894   1.084   1_455  S
C3895      C3896   1.399       .  A
C3895      C3900   1.402   1_556  A
C3896      C3897   1.407       .  A
C3896      H3909   1.083       .  S
C3897      C3898   1.420       .  A
C3897      H3910   1.078       .  S
C3898      C3904   1.441       .  A
C3898      C3899   1.422       .  A
C3899      C3901   1.400   1_556  A
C3899      C3900   1.409   1_556  A
C3900      H3911   1.085       .  S
C3901      C3902   1.392       .  A
C3901      H3912   1.084       .  S
C3902      C3903   1.400   1_554  A
C3902      H3913   1.084       .  S
C3903      C3904   1.425       .  A
C3903      C3908   1.414       .  A
C3904      C3905   1.415       .  A
C3905      C3906   1.404       .  A
C3905      H3914   1.078       .  S
C3906      C3907   1.405       .  A
C3906      H3915   1.083       .  S
C3907      C3908   1.405       .  A
C3908      H3916   1.084   1_556  S
C3917      C3918   1.405       .  A
C3917      C3922   1.403   1_565  A
C3918      C3919   1.402       .  A
C3918      H3931   1.083       .  S
C3919      C3920   1.415       .  A
C3919      H3932   1.077       .  S
C3920      C3926   1.439       .  A
C3920      C3921   1.425   1_565  A
C3921      C3923   1.399       .  A
C3921      C3922   1.412       .  A
C3922      H3933   1.084       .  S
C3923      C3924   1.391       .  A
C3923      H3934   1.084       .  S
C3924      C3925   1.400       .  A
C3924      H3935   1.084       .  S
C3925      C3926   1.422   1_545  A
C3925      C3930   1.407       .  A
C3926      C3927   1.421       .  A
C3927      C3928   1.406       .  A
C3927      H3936   1.077       .  S
C3928      C3929   1.399       .  A
C3928      H3937   1.083       .  S
C3929      C3930   1.401   1_565  A
C3930      H3938   1.085       .  S
C3939      C3940   1.400   1_655  A
C3939      C3944   1.401       .  A
C3940      C3941   1.399       .  A
C3940      H3953   1.084       .  S
C3941      C3942   1.415   1_455  A
C3941      H3954   1.077       .  S
C3942      C3948   1.438       .  A
C3942      C3943   1.425       .  A
C3943      C3945   1.400       .  A
C3943      C3944   1.415       .  A
C3944      H3955   1.084       .  S
C3945      C3946   1.395       .  A
C3945      H3956   1.084       .  S
C3946      C3947   1.402       .  A
C3946      H3957   1.084       .  S
C3947      C3948   1.422       .  A
C3947      C3952   1.413       .  A
C3948      C3949   1.417       .  A
C3949      C3950   1.402       .  A
C3949      H3958   1.078   1_655  S
C3950      C3951   1.403       .  A
C3950      H3959   1.083   1_655  S
C3951      C3952   1.407       .  A
C3952      H3960   1.084       .  S
