geometry optimzed in LAMMPS
_audit_creation_date              2020-11-30 
_audit_creation_method            'lammps2cif' 
_symmetry_space_group_name_H-M    'P1' 
_symmetry_Int_Tables_number       1 
_symmetry_cell_setting            triclinic 
loop_ 
_symmetry_equiv_pos_as_xyz 
  x,y,z 
_cell_length_a                    40.58980156 
_cell_length_b                    40.387880914167546 
_cell_length_c                    40.54649489433111 
_cell_angle_alpha                 89.94931572075548 
_cell_angle_beta                  91.08646436039311 
_cell_angle_gamma                 89.73242647997925 
loop_ 
_atom_site_label 
_atom_site_type_symbol 
_atom_site_fract_x 
_atom_site_fract_y 
_atom_site_fract_z 
_atom_site_charge 
N1          N  0.54439625  0.65223824  0.96726693    -0.27000
N2          N  0.52702278  0.67017491  0.98806709    -0.34900
C3          C  0.54823936  0.68545270  0.00911431     0.01300
C4          C  0.58046103  0.67746807  0.00081597     0.07400
C5          C  0.57660176  0.65678135  0.97377030    -0.05700
H6          H  0.54077478  0.69789096  0.03139446     0.08000
H7          H  0.59566922  0.64104056  0.96386143     0.09200
Cu8        Cu  0.47507104  0.66862973  0.99020950     0.44200
Cu9        Cu  0.52670985  0.61137914  0.94113406     0.42000
Cu10       Cu  0.44201447  0.60386787  0.93688871     0.43900
N11         N  0.42418313  0.66209977  0.98063340    -0.34400
N12         N  0.41357120  0.64056979  0.95834654    -0.28700
C13         C  0.38060867  0.63987566  0.95831194    -0.04800
C14         C  0.36907493  0.66121069  0.98219318     0.07500
C15         C  0.39762367  0.67493697  0.99604766     0.01300
H16         H  0.36616750  0.62141453  0.94525099     0.08900
H17         H  0.39908373  0.69027874  0.01782942     0.08000
N18         N  0.47241603  0.56382233  0.92665145    -0.35800
N19         N  0.50477405  0.56654847  0.92818654    -0.28000
C20         C  0.51837106  0.53618683  0.92514436    -0.03300
C21         C  0.49322242  0.51317913  0.92161199     0.05300
C22         C  0.46440639  0.53172762  0.92258060     0.03400
H23         H  0.54447507  0.53099886  0.92755580     0.08500
H24         H  0.43948478  0.52237522  0.92258783     0.07400
N25         N  0.56929933  0.34893423  0.97344899    -0.27000
N26         N  0.55544163  0.32899319  0.99499864    -0.34900
C27         C  0.57943996  0.31531668  0.01425941     0.01300
C28         C  0.60981633  0.32659140  0.00381969     0.07400
C29         C  0.60208709  0.34766638  0.97782763    -0.05700
H30         H  0.57494699  0.30109499  0.03633928     0.08000
H31         H  0.61883353  0.36477643  0.96636990     0.09200
Cu32       Cu  0.50417595  0.32501691  0.99915686     0.44200
Cu33       Cu  0.54494406  0.38600371  0.94678890     0.42000
Cu34       Cu  0.45973753  0.37995093  0.94130537     0.43900
N35         N  0.45299798  0.32417047  0.99090490    -0.34400
N36         N  0.43813585  0.34162756  0.96730214    -0.28700
C37         C  0.40545492  0.33768625  0.96940638    -0.04800
C38         C  0.39880460  0.31739900  0.99594740     0.07500
C39         C  0.42969272  0.30952339  0.00920026     0.01300
H40         H  0.38762463  0.35278179  0.95602457     0.08900
H41         H  0.43466188  0.29708159  0.03242978     0.08000
N42         N  0.48367272  0.42353822  0.92901409    -0.35800
N43         N  0.51604105  0.42594049  0.93122096    -0.28000
C44         C  0.52463299  0.45786690  0.92708935    -0.03300
C45         C  0.49617582  0.47656280  0.92220167     0.05300
C46         C  0.47068242  0.45384222  0.92344457     0.03400
H47         H  0.54950107  0.46710121  0.92985600     0.08500
H48         H  0.44455867  0.45926075  0.92278830     0.07400
N49         N  0.65440631  0.02516498  0.57825186    -0.27000
N50         N  0.68398134  0.03504915  0.56967520    -0.34900
C51         C  0.70110544  0.04331279  0.59753001     0.01300
C52         C  0.68133884  0.03745705  0.62475549     0.07400
C53         C  0.65232015  0.02541406  0.61110585    -0.05700
H54         H  0.72439222  0.05624251  0.59775875     0.08000
H55         H  0.62925369  0.02295504  0.62383363     0.09200
Cu56       Cu  0.69369757  0.04157611  0.51913810     0.44200
Cu57       Cu  0.61320274  0.02927261  0.54794490     0.42000
Cu58       Cu  0.62056843  0.07722260  0.47591965     0.43900
N59         N  0.68772074  0.04566961  0.46735899    -0.34400
N60         N  0.66367234  0.06305452  0.45310194    -0.28700
C61         C  0.66372351  0.05766330  0.42048795    -0.04800
C62         C  0.68786643  0.03471553  0.41318516     0.07500
C63         C  0.70255619  0.02755064  0.44377047     0.01300
H64         H  0.64347064  0.06469596  0.40417164     0.08900
H65         H  0.71956410  0.00749275  0.44911578     0.08000
N66         N  0.57502237  0.06758025  0.49635007    -0.35800
N67         N  0.57277942  0.04950480  0.52335359    -0.28000
C68         C  0.54090679  0.04575191  0.53068398    -0.03300
C69         C  0.52193249  0.06144876  0.50664860     0.05300
C70         C  0.54435434  0.07494785  0.48505905     0.03400
H71         H  0.53218473  0.03141995  0.55128654     0.08500
H72         H  0.53881382  0.08844639  0.46256051     0.07400
N73         N  0.35437205  0.00466091  0.55781742    -0.27000
N74         N  0.33394203  0.98590503  0.54033222    -0.34900
C75         C  0.31834331  0.96537175  0.56123083     0.01300
C76         C  0.32900464  0.97229130  0.59326624     0.07400
C77         C  0.35182742  0.99721539  0.58986847    -0.05700
H78         H  0.30265261  0.94511186  0.55350995     0.08000
H79         H  0.36845919  0.00627690  0.60894512     0.09200
Cu80       Cu  0.33233757  0.98749432  0.48849155     0.44200
Cu81       Cu  0.39228221  0.03210417  0.53854702     0.42000
Cu82       Cu  0.39404114  0.04495262  0.45372744     0.43900
N83         N  0.33674503  0.99851638  0.43803649    -0.34400
N84         N  0.35710377  0.02114420  0.42659796    -0.28700
C85         C  0.35609833  0.02037555  0.39351826    -0.04800
C86         C  0.33451678  0.99599244  0.38303389     0.07500
C87         C  0.32293129  0.98237878  0.41208960     0.01300
H88         H  0.37330778  0.03343227  0.37819943     0.08900
H89         H  0.30829359  0.96019103  0.41427985     0.08000
N90         N  0.43476846  0.05531123  0.48384482    -0.35800
N91         N  0.43391030  0.04957141  0.51585001    -0.28000
C92         C  0.46440959  0.05253774  0.52891265    -0.03300
C93         C  0.48564077  0.06085647  0.50396934     0.05300
C94         C  0.46598656  0.06259389  0.47564024     0.03400
H95         H  0.47095003  0.04711502  0.55433906     0.08500
H96         H  0.47420660  0.06609779  0.45065328     0.07400
O97         O  0.70456950  0.99973819  0.97018099    -0.72700
O98         O  0.70249096  0.99364786  0.06917827    -0.73600
O99         O  0.70242514  0.94652221  0.01718372    -0.62300
O100        O  0.70323675  0.04701296  0.02271001    -0.70700
O101        O  0.64858488  0.04769583  0.02007882    -0.70200
O102        O  0.64786741  0.94840835  0.01320638    -0.61500
O103        O  0.64789466  0.99470331  0.06718697    -0.74000
O104        O  0.64994680  0.00254160  0.96754481    -0.72800
Cu105      Cu  0.70507890  0.99664153  0.01986539     1.04600
Cu106      Cu  0.64668538  0.99819287  0.01700572     1.04300
C107        C  0.67782464  0.00315052  0.95336610     0.93500
C108        C  0.67499629  0.99339302  0.08395212     0.92700
C109        C  0.67469395  0.93171614  0.01429780     0.84800
C110        C  0.67593042  0.06311347  0.02179517     0.91100
N111        N  0.70011221  0.01357569  0.35589269    -0.03200
C112        C  0.68049111  0.99818981  0.33290722    -0.00600
C113        C  0.65249717  0.98620902  0.34764761    -0.23500
C114        C  0.65449187  0.99474026  0.38029329    -0.23700
C115        C  0.68364187  0.01177636  0.38486067    -0.00700
H116        H  0.63158508  0.97471598  0.33537757     0.13100
H117        H  0.63520908  0.99170518  0.39811244     0.13100
N118        N  0.66754309  0.31234338  0.02422340    -0.03200
C119        C  0.69261077  0.33265670  0.03427962    -0.00600
C120        C  0.68037101  0.36364235  0.04205366    -0.23500
C121        C  0.64716210  0.36281564  0.03587450    -0.23700
C122        C  0.63974505  0.33143168  0.02447314    -0.00700
H123        H  0.69429770  0.38551181  0.04864024     0.13100
H124        H  0.63067783  0.38395911  0.03627621     0.13100
O125        O  0.95765697  0.99440965  0.71434961    -0.72700
O126        O  0.05702678  0.99022941  0.70706145    -0.73600
O127        O  0.00852106  0.04129544  0.70728146    -0.62300
O128        O  0.00597188  0.94251142  0.71536281    -0.70700
O129        O  0.00177954  0.93823828  0.66080837    -0.70200
O130        O  0.00426851  0.03749864  0.65269488    -0.61500
O131        O  0.05122298  0.98565330  0.65274274    -0.74000
O132        O  0.95321422  0.98949115  0.65994839    -0.72800
Cu133      Cu  0.00738604  0.99221702  0.71295864     1.04600
Cu134      Cu  0.00226196  0.98758446  0.65469641     1.04300
C135        C  0.93983507  0.99286785  0.68801660     0.93500
C136        C  0.06969416  0.98719917  0.67850013     0.92700
C137        C  0.00725922  0.05491220  0.67889523     0.84800
C138        C  0.00449796  0.92483780  0.68930070     0.91100
N139        N  0.02392744  0.32568992  0.68813280    -0.03200
C140        C  0.03592527  0.30138860  0.66839726    -0.00600
C141        C  0.04538860  0.31449006  0.63855576    -0.23500
C142        C  0.03828936  0.34770638  0.63960210    -0.23700
C143        C  0.02498595  0.35405530  0.67011807    -0.00700
H144        H  0.05378669  0.30097574  0.61724292     0.13100
H145        H  0.03986130  0.36485877  0.61916707     0.13100
N146        N  0.31185181  0.95693158  0.64999112    -0.03200
C147        C  0.32940301  0.94344849  0.67564109    -0.00600
C148        C  0.35712044  0.92764058  0.66397329    -0.23500
C149        C  0.35680465  0.93187847  0.63035998    -0.23700
C150        C  0.32898587  0.95027601  0.62228914    -0.00700
H151        H  0.37700914  0.91687928  0.67862985     0.13100
H152        H  0.37686507  0.92588787  0.61416244     0.13100
O153        O  0.28325695  0.94262397  0.98530798    -0.72700
O154        O  0.29069357  0.04260677  0.98212442    -0.73600
O155        O  0.28754721  0.99066411  0.93374526    -0.62300
O156        O  0.28580644  0.99357311  0.03345089    -0.70700
O157        O  0.34023852  0.98843851  0.03514102    -0.70200
O158        O  0.34212116  0.98866101  0.93607006    -0.61500
O159        O  0.34508866  0.03807191  0.98623687    -0.74000
O160        O  0.33781999  0.93891792  0.98504664    -0.72800
Cu161      Cu  0.28487676  0.99262175  0.98352865     1.04600
Cu162      Cu  0.34313960  0.98841275  0.98565577     1.04300
C163        C  0.30958936  0.92508402  0.98550828     0.93500
C164        C  0.31916560  0.05607392  0.98433938     0.92700
C165        C  0.31518777  0.98892291  0.91917871     0.84800
C166        C  0.31282966  0.99096841  0.05001532     0.91100
O167        O  0.01014833  0.07449553  0.29391105    -0.72700
O168        O  0.00319372  0.97506549  0.29272214    -0.73600
O169        O  0.95638033  0.02868193  0.29776517    -0.62300
O170        O  0.05590940  0.02117665  0.29001822    -0.70700
O171        O  0.05975732  0.01893796  0.34464944    -0.70200
O172        O  0.96280589  0.02847551  0.35216456    -0.61500
O173        O  0.00663067  0.97451984  0.34741063    -0.74000
O174        O  0.01573985  0.07370033  0.34841484    -0.72800
Cu175      Cu  0.00612223  0.02495768  0.29162082     1.04600
Cu176      Cu  0.01138125  0.02396735  0.34995919     1.04300
C177        C  0.01463030  0.08977574  0.32119891     0.93500
C178        C  0.00399192  0.95910280  0.31995491     0.92700
C179        C  0.94400728  0.02946099  0.32661800     0.84800
C180        C  0.07331130  0.01821884  0.31653279     0.91100
O181        O  0.00148015  0.29510195  0.05192139    -0.72700
O182        O  0.00188489  0.28550550  0.95139523    -0.73600
O183        O  0.05086126  0.28699104  0.00294475    -0.62300
O184        O  0.95207021  0.29206208  0.00044749    -0.70700
O185        O  0.95423418  0.34694400  0.99895049    -0.70200
O186        O  0.05338466  0.34105177  0.99384914    -0.61500
O187        O  0.00017400  0.34027127  0.94718106    -0.74000
O188        O  0.00724338  0.34915120  0.04488742    -0.72800
Cu189      Cu  0.00142768  0.28791173  0.00180014     1.04600
Cu190      Cu  0.00383036  0.34616675  0.99597724     1.04300
C191        C  0.00508953  0.32421809  0.06406200     0.93500
C192        C  0.00070761  0.31179983  0.93364720     0.92700
C193        C  0.06780875  0.31309775  0.99839806     0.84800
C194        C  0.93757728  0.32019444  0.00045582     0.91100
N195        N  0.04213066  0.35927231  0.30600876    -0.03200
C196        C  0.06044760  0.33471580  0.32051814    -0.00600
C197        C  0.07953695  0.34756328  0.34602105    -0.23500
C198        C  0.07251395  0.38075052  0.34770187    -0.23700
C199        C  0.04932682  0.38735397  0.32320691    -0.00700
H200        H  0.09420590  0.33361494  0.36380997     0.13100
H201        H  0.08045466  0.39738778  0.36716931     0.13100
N202        N  0.31782214  0.98375675  0.32387579    -0.03200
C203        C  0.33571706  0.97419439  0.29737768    -0.00600
C204        C  0.36647600  0.96310544  0.30782588    -0.23500
C205        C  0.36779801  0.96631086  0.34148219    -0.23700
C206        C  0.33781703  0.97917274  0.35086751    -0.00700
H207        H  0.38655395  0.95534033  0.29239666     0.13100
H208        H  0.38934147  0.96236788  0.35716182     0.13100
N209        N  0.34050888  0.30229425  0.00932238    -0.03200
C210        C  0.31474338  0.32141294  0.01902702    -0.00600
C211        C  0.32599388  0.35152165  0.03065901    -0.23500
C212        C  0.35959800  0.35113945  0.02783291    -0.23700
C213        C  0.36801274  0.32087700  0.01439611    -0.00700
H214        H  0.31112899  0.37236495  0.03831042     0.13100
H215        H  0.37579396  0.37203713  0.03182174     0.13100
O216        O  0.97638817  0.64446964  0.06711915    -0.72700
O217        O  0.97218584  0.63998312  0.96805702    -0.73600
O218        O  0.02367171  0.64466735  0.01691768    -0.62300
O219        O  0.92476821  0.63998183  0.01943921    -0.70700
O220        O  0.92171793  0.69466110  0.01480668    -0.70200
O221        O  0.02108440  0.69956211  0.01560009    -0.61500
O222        O  0.97175875  0.69490534  0.96576981    -0.74000
O223        O  0.97148848  0.69917945  0.06543647    -0.72800
Cu224      Cu  0.97424723  0.64040387  0.01789214     1.04600
Cu225      Cu  0.97128461  0.69901900  0.01530957     1.04300
C226        C  0.97470205  0.67230111  0.08196386     0.93500
C227        C  0.97247715  0.66679927  0.95129783     0.92700
C228        C  0.03801286  0.67277762  0.01613264     0.84800
C229        C  0.90763229  0.66657581  0.01774915     0.91100
N230        N  0.01062918  0.68492196  0.32700789    -0.03200
C231        C  0.01657942  0.71340350  0.34396022    -0.00600
C232        C  0.02612856  0.70619294  0.37607558    -0.23500
C233        C  0.02576917  0.67240006  0.37916648    -0.23700
C234        C  0.01607310  0.65974925  0.34886362    -0.00700
H235        H  0.03071416  0.72376498  0.39575560     0.13100
H236        H  0.02933314  0.65864737  0.40189287     0.13100
N237        N  0.31121387  0.67681195  0.00222751    -0.03200
C238        C  0.28538476  0.65743105  0.01155383    -0.00600
C239        C  0.29522280  0.62468866  0.01392868    -0.23500
C240        C  0.32758923  0.62342596  0.00557230    -0.23700
C241        C  0.33706729  0.65537480  0.99826693    -0.00700
H242        H  0.27998622  0.60353419  0.01938685     0.13100
H243        H  0.34232052  0.60115755  0.00337516     0.13100
N244        N  0.01664339  0.65383296  0.70864620    -0.03200
C245        C  0.03204032  0.67793400  0.69117595    -0.00600
C246        C  0.04616491  0.66456146  0.66337025    -0.23500
C247        C  0.03890867  0.63151204  0.66329031    -0.23700
C248        C  0.02064372  0.62543337  0.69102305    -0.00700
H249        H  0.05848003  0.67773751  0.64393789     0.13100
H250        H  0.04396437  0.61425698  0.64358984     0.13100
N251        N  0.69847364  0.04594658  0.68504335    -0.03200
C252        C  0.68134772  0.05910261  0.71072899    -0.00600
C253        C  0.65470819  0.07722600  0.69870979    -0.23500
C254        C  0.65487153  0.07462224  0.66511275    -0.23700
C255        C  0.68144813  0.05487060  0.65703423    -0.00700
H256        H  0.63549728  0.08898883  0.71270548     0.13100
H257        H  0.63568509  0.08360482  0.64843874     0.13100
N258        N  0.63839369  0.68576666  0.02323124    -0.03200
C259        C  0.65992071  0.66262229  0.03573052    -0.00600
C260        C  0.64289853  0.63519487  0.04647638    -0.23500
C261        C  0.61024334  0.64110387  0.03972845    -0.23700
C262        C  0.60789042  0.67181370  0.02471805    -0.00700
H263        H  0.65308910  0.61213124  0.05573551     0.13100
H264        H  0.59072478  0.62305585  0.04165259     0.13100
N265        N  0.97250379  0.55714546  0.66426357    -0.27000
N266        N  0.99356105  0.54135401  0.68405664    -0.34900
C267        C  0.01107527  0.56406187  0.70132218     0.01300
C268        C  0.00000954  0.59557334  0.69262490     0.05600
C269        C  0.97547939  0.58984578  0.66916727    -0.05700
H270        H  0.03281851  0.55827679  0.71612741     0.08000
H271        H  0.96460303  0.60828480  0.65287648     0.09200
Cu272      Cu  0.00044755  0.48981726  0.68265852     0.44200
Cu273      Cu  0.94941726  0.53647885  0.62298784     0.42000
Cu274      Cu  0.94869241  0.45074891  0.61885862     0.43900
N275        N  0.99604294  0.43843745  0.67627241    -0.34400
N276        N  0.97445696  0.42520763  0.65534386    -0.28700
C277        C  0.97894271  0.39235628  0.65457527    -0.04800
C278        C  0.00491376  0.38397554  0.67545419     0.07500
C279        C  0.01538606  0.41392541  0.68871837     0.01300
H280        H  0.96749683  0.37631676  0.63636619     0.08900
H281        H  0.03748027  0.41795897  0.70350296     0.08000
N282        N  0.93830274  0.47932512  0.57755596    -0.35800
N283        N  0.93853150  0.51194038  0.57906632    -0.28000
C284        C  0.93629517  0.52425795  0.54822439    -0.03300
C285        C  0.93485468  0.49800790  0.52618673     0.05300
C286        C  0.93611514  0.46985999  0.54573999     0.03400
H287        H  0.93815561  0.55026175  0.54219667     0.08500
H288        H  0.93768175  0.44447488  0.53741200     0.07400
N289        N  0.97947703  0.58093310  0.36703872    -0.27000
N290        N  0.00188194  0.57074896  0.34603826    -0.34900
C291        C  0.01666716  0.59766510  0.33316096     0.01300
C292        C  0.00224522  0.62598747  0.34622936     0.07400
C293        C  0.97901748  0.61410863  0.36766490    -0.05700
H294        H  0.03812894  0.59658352  0.31780943     0.08000
H295        H  0.96532357  0.62858390  0.38524055     0.09200
Cu296      Cu  0.01260022  0.52020095  0.33959055     0.44200
Cu297      Cu  0.95669380  0.55103062  0.40115101     0.42000
Cu298      Cu  0.96722189  0.46492160  0.39582002     0.43900
N299        N  0.01333170  0.46815971  0.33742098    -0.34400
N300        N  0.99503608  0.44892359  0.35610367    -0.28700
C301        C  0.00240964  0.41709960  0.34985812    -0.04800
C302        C  0.02662074  0.41576555  0.32634574     0.07500
C303        C  0.03332276  0.44870320  0.31942925     0.01300
H304        H  0.99376218  0.39649421  0.36434556     0.08900
H305        H  0.05313675  0.45784782  0.30449740     0.08000
N306        N  0.94907551  0.48741583  0.43805939    -0.35800
N307        N  0.94530591  0.51984086  0.43978812    -0.28000
C308        C  0.93807632  0.52833246  0.47090602    -0.03300
C309        C  0.93720137  0.49984660  0.48986545     0.05300
C310        C  0.94413834  0.47427798  0.46815347     0.03400
H311        H  0.93574614  0.55356424  0.47950027     0.08500
H312        H  0.94766234  0.44841900  0.47426287     0.07400
C313        C  0.07442910  0.67411096  0.01615780    -0.01000
C314        C  0.09100562  0.69634105  0.99584130    -0.09000
C315        C  0.12555220  0.69668045  0.99519865    -0.17900
C316        C  0.14462224  0.67519295  0.01562623     0.04500
C317        C  0.12742673  0.65357015  0.03701644     0.18700
C318        C  0.09282066  0.65279718  0.03660902    -0.19300
C319        C  0.14481444  0.63273880  0.05877472    -0.20600
C320        C  0.17899680  0.63254585  0.05960231    -0.19100
C321        C  0.19671413  0.65254327  0.03810594     0.20100
C322        C  0.17998451  0.67410705  0.01563835     0.02200
C323        C  0.19945923  0.69268993  0.99365917    -0.13800
C324        C  0.23388172  0.68876307  0.99314949    -0.11500
C325        C  0.25004567  0.66706636  0.01518447     0.01800
C326        C  0.23116194  0.64996474  0.03820713    -0.23700
H327        H  0.07714840  0.71306192  0.97985983     0.09800
H328        H  0.13666518  0.71417031  0.97872664     0.13300
H329        H  0.08006240  0.63587936  0.05271420     0.12100
H330        H  0.13186841  0.61643688  0.07530469     0.13200
H331        H  0.19169294  0.61597960  0.07668889     0.12300
H332        H  0.18864022  0.70933200  0.97564414     0.09400
H333        H  0.24765128  0.70167952  0.97453816     0.12600
H334        H  0.24334025  0.63316423  0.05545537     0.14500
C335        C  0.00345544  0.68150585  0.29220102    -0.01000
C336        C  0.02250961  0.65981130  0.27359401    -0.09000
C337        C  0.01746385  0.65677546  0.23966915    -0.17900
C338        C  0.99321364  0.67592161  0.22287098     0.04500
C339        C  0.97447901  0.69876125  0.24159683     0.18700
C340        C  0.97929379  0.70092083  0.27607551    -0.19300
C341        C  0.95163623  0.71971794  0.22562823    -0.20600
C342        C  0.94768528  0.71906636  0.19137551    -0.19100
C343        C  0.96555347  0.69657840  0.17230934     0.20100
C344        C  0.98768728  0.67388016  0.18802486     0.02200
C345        C  0.00321113  0.64989346  0.16821051    -0.13800
C346        C  0.99817373  0.64938970  0.13413971    -0.11500
C347        C  0.97795977  0.67295251  0.11840078     0.01800
C348        C  0.96148170  0.69646184  0.13764007    -0.23700
H349        H  0.04223061  0.64577495  0.28535298     0.09800
H350        H  0.03377693  0.64007650  0.22715320     0.13300
H351        H  0.96454460  0.71794513  0.29028639     0.12100
H352        H  0.93729903  0.73728157  0.23964798     0.13200
H353        H  0.93037447  0.73615803  0.17972546     0.12300
H354        H  0.01905342  0.63080526  0.17833840     0.09400
H355        H  0.01082972  0.63074821  0.11986892     0.12600
H356        H  0.94514818  0.71430684  0.12567528     0.14500
C357        C  0.87135881  0.66480120  0.02001147    -0.01000
C358        C  0.85691465  0.64062540  0.03978237    -0.09000
C359        C  0.82276797  0.63951164  0.04335817    -0.17900
C360        C  0.80178818  0.66222830  0.02656006     0.04500
C361        C  0.81651253  0.68563144  0.00521057     0.18700
C362        C  0.85100022  0.68727594  0.00282662    -0.19300
C363        C  0.79669530  0.70700661  0.98613946    -0.20600
C364        C  0.76252070  0.70545067  0.98755048    -0.19100
C365        C  0.74731915  0.68356817  0.00923903     0.20100
C366        C  0.76675752  0.66229815  0.02973795     0.02200
C367        C  0.75029637  0.64252044  0.05291900    -0.13800
C368        C  0.71603357  0.64360318  0.05532415    -0.11500
C369        C  0.69671374  0.66366708  0.03419860     0.01800
C370        C  0.71274283  0.68309339  0.01072017    -0.23700
H371        H  0.87219155  0.62287223  0.05310951     0.09800
H372        H  0.81344404  0.62016109  0.05897316     0.13300
H373        H  0.86204058  0.70566995  0.98698730     0.12100
H374        H  0.80770620  0.72472252  0.96958667     0.13200
H375        H  0.74788430  0.72197863  0.97206799     0.12300
H376        H  0.76332516  0.62662816  0.07019455     0.09400
H377        H  0.70468881  0.62854177  0.07402179     0.12600
H378        H  0.69844117  0.69791401  0.99338433     0.14500
C379        C  0.97572056  0.66543151  0.91509345    -0.01000
C380        C  0.95601924  0.64455055  0.89556768    -0.09000
C381        C  0.96037376  0.64271414  0.86135336    -0.17900
C382        C  0.98553783  0.66091539  0.84586778     0.04500
C383        C  0.00609044  0.68112976  0.86625453     0.18700
C384        C  0.00042503  0.68388351  0.90020010    -0.19300
C385        C  0.03276851  0.69791085  0.85286456    -0.20600
C386        C  0.03979389  0.69485604  0.81964346    -0.19100
C387        C  0.01964323  0.67590752  0.79870186     0.20100
C388        C  0.99176156  0.65921388  0.81118979     0.02200
C389        C  0.97149046  0.64176250  0.78833327    -0.13800
C390        C  0.97914452  0.64040628  0.75471137    -0.11500
C391        C  0.00731524  0.65609031  0.74288207     0.01800
C392        C  0.02739478  0.67362724  0.76523675    -0.23700
H393        H  0.93705314  0.62977314  0.90680321     0.09800
H394        H  0.94435717  0.62617834  0.84777279     0.13300
H395        H  0.01624129  0.69942948  0.91542912     0.12100
H396        H  0.04870284  0.71304455  0.86833394     0.13200
H397        H  0.06100653  0.70773416  0.81017201     0.12300
H398        H  0.94933088  0.62935562  0.79569758     0.09400
H399        H  0.96283465  0.62726730  0.73792662     0.12600
H400        H  0.04949942  0.68545133  0.75648362     0.14500
C401        C  0.10429570  0.31093853  0.99888129    -0.01000
C402        C  0.12061480  0.28457251  0.01485374    -0.09000
C403        C  0.15506256  0.28337858  0.01702657    -0.17900
C404        C  0.17443105  0.30852515  0.00290707     0.04500
C405        C  0.15766921  0.33442427  0.98550412     0.18700
C406        C  0.12307062  0.33552192  0.98390897    -0.19300
C407        C  0.17548962  0.35942942  0.97013646    -0.20600
C408        C  0.20963295  0.35992924  0.97243574    -0.19100
C409        C  0.22682580  0.33562231  0.99044359     0.20100
C410        C  0.20967429  0.30931760  0.00575442     0.02200
C411        C  0.22859028  0.28565199  0.02391448    -0.13800
C412        C  0.26290444  0.28869187  0.02741325    -0.11500
C413        C  0.27927714  0.31510538  0.01273579     0.01800
C414        C  0.26112704  0.33811334  0.99394333    -0.23700
H415        H  0.10666379  0.26510981  0.02644200     0.09800
H416        H  0.16580777  0.26258069  0.03005374     0.13300
H417        H  0.11068572  0.35571563  0.97100388     0.12100
H418        H  0.16289267  0.37901001  0.95653764     0.13200
H419        H  0.22267447  0.37991085  0.96058423     0.12300
H420        H  0.21749763  0.26504131  0.03633754     0.09400
H421        H  0.27657947  0.27088572  0.04233631     0.12600
H422        H  0.27384167  0.35864974  0.98260232     0.14500
C423        C  0.00747599  0.33019021  0.10027308    -0.01000
C424        C  0.02158357  0.35984651  0.11146174    -0.09000
C425        C  0.02419088  0.36715813  0.14495067    -0.17900
C426        C  0.01257716  0.34500234  0.16899086     0.04500
C427        C  0.99790155  0.31497463  0.15783875     0.18700
C428        C  0.99559559  0.30773798  0.12369954    -0.19300
C429        C  0.98601478  0.29231160  0.18091212    -0.20600
C430        C  0.98938417  0.29830710  0.21471247    -0.19100
C431        C  0.00474317  0.32713441  0.22640459     0.20100
C432        C  0.01592596  0.35120785  0.20366659     0.02200
C433        C  0.03087108  0.38007397  0.21665966    -0.13800
C434        C  0.03731752  0.38334938  0.25039805    -0.11500
C435        C  0.02848217  0.35854228  0.27269394     0.01800
C436        C  0.01028179  0.33144209  0.26062977    -0.23700
H437        H  0.03112093  0.37765508  0.09411878     0.09800
H438        H  0.03572706  0.39033643  0.15110475     0.13300
H439        H  0.98439844  0.28481839  0.11540658     0.12100
H440        H  0.97453824  0.26948540  0.17277377     0.13200
H441        H  0.98063991  0.27985440  0.23184352     0.12300
H442        H  0.03910558  0.40008297  0.20137836     0.09400
H443        H  0.05104858  0.40472324  0.25888111     0.12600
H444        H  0.00170198  0.31291536  0.27770390     0.14500
C445        C  0.28343373  0.99296826  0.32407707    -0.01000
C446        C  0.27005413  0.01529723  0.30095729    -0.09000
C447        C  0.23596256  0.02038224  0.29840309    -0.17900
C448        C  0.21417460  0.00363795  0.31949450     0.04500
C449        C  0.22820611  0.98267714  0.34428177     0.18700
C450        C  0.26236158  0.97738402  0.34609980    -0.19300
C451        C  0.20806596  0.96658806  0.36679536    -0.20600
C452        C  0.17412111  0.97079136  0.36525978    -0.19100
C453        C  0.15944151  0.99063885  0.34075326     0.20100
C454        C  0.17908889  0.00696207  0.31711565     0.02200
C455        C  0.16264057  0.02546840  0.29200459    -0.13800
C456        C  0.12822614  0.02837423  0.29111138    -0.11500
C457        C  0.10932807  0.01340707  0.31541137     0.01800
C458        C  0.12509820  0.99431232  0.33989671    -0.23700
H459        H  0.28599487  0.02837158  0.28433936     0.09800
H460        H  0.22739440  0.03759687  0.27976188     0.13300
H461        H  0.27255548  0.95996742  0.36391561     0.12100
H462        H  0.21866180  0.95072039  0.38582251     0.13200
H463        H  0.15920663  0.95818940  0.38322702     0.12300
H464        H  0.17569388  0.03780722  0.27265423     0.09400
H465        H  0.11641933  0.04309090  0.27187201     0.12600
H466        H  0.11047292  0.98212118  0.35840947     0.14500
C467        C  0.01921164  0.12617249  0.32115730    -0.01000
C468        C  0.01440155  0.14460283  0.34989404    -0.09000
C469        C  0.01976231  0.17873976  0.35034527    -0.17900
C470        C  0.03073534  0.19564481  0.32199679     0.04500
C471        C  0.03584315  0.17679663  0.29295206     0.18700
C472        C  0.02957761  0.14255980  0.29264339    -0.19300
C473        C  0.04774783  0.19211406  0.26456777    -0.20600
C474        C  0.05526547  0.22572272  0.26453051    -0.19100
C475        C  0.05040191  0.24506065  0.29266198     0.20100
C476        C  0.03741157  0.23038506  0.32159595     0.02200
C477        C  0.03166594  0.25114234  0.34891345    -0.13800
C478        C  0.03893150  0.28475992  0.34773357    -0.11500
C479        C  0.05231951  0.29901682  0.31956077     0.01800
C480        C  0.05837581  0.27902123  0.29210565    -0.23700
H481        H  0.00641748  0.13256037  0.37222985     0.09800
H482        H  0.01571371  0.19101073  0.37350058     0.13300
H483        H  0.03373921  0.12845092  0.27034998     0.12100
H484        H  0.05174487  0.17787293  0.24233938     0.13200
H485        H  0.06483453  0.23669359  0.24229238     0.12300
H486        H  0.02125262  0.24230215  0.37148604     0.09400
H487        H  0.03402435  0.29989087  0.36917142     0.12600
H488        H  0.06893819  0.28996779  0.27031271     0.14500
C489        C  0.00810571  0.74760941  0.33356076    -0.01000
C490        C  0.98591281  0.76535515  0.35279814    -0.09000
C491        C  0.98189188  0.79935206  0.34892646    -0.17900
C492        C  0.00046292  0.81703637  0.32575589     0.04500
C493        C  0.02085082  0.79862379  0.30417161     0.18700
C494        C  0.02469780  0.76404779  0.30835597    -0.19300
C495        C  0.03799881  0.81510893  0.27942610    -0.20600
C496        C  0.03591576  0.84948530  0.27622934    -0.19100
C497        C  0.01760350  0.86838372  0.29844041     0.20100
C498        C  0.99994256  0.85235240  0.32378575     0.02200
C499        C  0.98379319  0.87239219  0.34714602    -0.13800
C500        C  0.98514060  0.90681294  0.34544430    -0.11500
C501        C  0.00184400  0.92258111  0.32008898     0.01800
C502        C  0.01766899  0.90326294  0.29627328    -0.23700
H503        H  0.97238665  0.75290105  0.37193767     0.09800
H504        H  0.96434960  0.81111141  0.36476733     0.13300
H505        H  0.04171684  0.75030498  0.29321495     0.12100
H506        H  0.05330691  0.80135668  0.26258650     0.13200
H507        H  0.04958365  0.86146517  0.25689039     0.12300
H508        H  0.97089454  0.86228185  0.36778487     0.09400
H509        H  0.97297984  0.92127080  0.36418975     0.12600
H510        H  0.03124294  0.91540296  0.27694703     0.14500
C511        C  0.32243263  0.09264649  0.98530603    -0.01000
C512        C  0.29988436  0.11321008  0.96847609    -0.09000
C513        C  0.30317218  0.14773646  0.96943889    -0.17900
C514        C  0.32885647  0.16290905  0.98802560     0.04500
C515        C  0.35129339  0.14182516  0.00552100     0.18700
C516        C  0.34824207  0.10720300  0.00352972    -0.19300
C517        C  0.37638087  0.15538135  0.02536455    -0.20600
C518        C  0.37947964  0.18948172  0.02864915    -0.19100
C519        C  0.35795597  0.21096858  0.01169465     0.20100
C520        C  0.33268897  0.19811400  0.99062189     0.02200
C521        C  0.31230338  0.22114076  0.97340198    -0.13800
C522        C  0.31585862  0.25530101  0.97823341    -0.11500
C523        C  0.33964754  0.26765108  0.00042175     0.01800
C524        C  0.36114668  0.24530164  0.01633921    -0.23700
H525        H  0.27979158  0.10251329  0.95419250     0.09800
H526        H  0.28489078  0.16192631  0.95584665     0.13300
H527        H  0.36558227  0.09146791  0.01698198     0.12100
H528        H  0.39346237  0.13945919  0.03888136     0.13200
H529        H  0.39882392  0.19912972  0.04468078     0.12300
H530        H  0.29326135  0.21348785  0.95617832     0.09400
H531        H  0.29957275  0.27213107  0.96495656     0.12600
H532        H  0.37960328  0.25471315  0.03352961     0.14500
C533        C  0.32750921  0.97969028  0.26185742    -0.01000
C534        C  0.29876545  0.96745074  0.24666759    -0.09000
C535        C  0.29370301  0.97051119  0.21237904    -0.17900
C536        C  0.31774770  0.98535468  0.19220169     0.04500
C537        C  0.34664707  0.99780956  0.20808004     0.18700
C538        C  0.35093846  0.99526139  0.24233887    -0.19300
C539        C  0.37173384  0.01199646  0.18968079    -0.20600
C540        C  0.36931679  0.01331247  0.15555984    -0.19100
C541        C  0.34146065  0.00107581  0.13895954     0.20100
C542        C  0.31484349  0.98759555  0.15691472     0.02200
C543        C  0.28683415  0.97681047  0.13860980    -0.13800
C544        C  0.28578976  0.97866007  0.10402144    -0.11500
C545        C  0.31273856  0.99076234  0.08660320     0.01800
C546        C  0.34033407  0.00209533  0.10435405    -0.23700
H547        H  0.28056092  0.95482190  0.26120498     0.09800
H548        H  0.27125442  0.96022262  0.20221507     0.13300
H549        H  0.37325217  0.00480210  0.25393664     0.12100
H550        H  0.39377095  0.02153903  0.20174698     0.13200
H551        H  0.38951506  0.02387791  0.14202030     0.12300
H552        H  0.26541696  0.96687514  0.15037108     0.09400
H553        H  0.26411910  0.96983391  0.09080924     0.12600
H554        H  0.36109514  0.01196288  0.09110757     0.14500
C555        C  0.31142517  0.71269880  0.00048054    -0.01000
C556        C  0.29369250  0.73137787  0.02339697    -0.09000
C557        C  0.29173158  0.76583813  0.02116595    -0.17900
C558        C  0.30872072  0.78319822  0.99655054     0.04500
C559        C  0.32876700  0.76452861  0.97491384     0.18700
C560        C  0.32917963  0.72964926  0.97639445    -0.19300
C561        C  0.34845956  0.78083818  0.95209534    -0.20600
C562        C  0.34897079  0.81528069  0.95060540    -0.19100
C563        C  0.32856254  0.83426822  0.97073528     0.20100
C564        C  0.30725656  0.81845093  0.99320136     0.02200
C565        C  0.28507353  0.83858319  0.01090365    -0.13800
C566        C  0.28510012  0.87306048  0.00739562    -0.11500
C567        C  0.30767557  0.88856893  0.98686613     0.01800
C568        C  0.32922797  0.86902253  0.96846031    -0.23700
H569        H  0.28105736  0.71919299  0.04325411     0.09800
H570        H  0.27754277  0.77832443  0.03965476     0.13300
H571        H  0.34305318  0.71584112  0.95847685     0.12100
H572        H  0.36410321  0.76687203  0.93573802     0.13200
H573        H  0.36505589  0.82714124  0.93318679     0.12300
H574        H  0.26707872  0.82831259  0.02718840     0.09400
H575        H  0.26802321  0.88775051  0.02156272     0.12600
H576        H  0.34627072  0.88093504  0.95198926     0.14500
C577        C  0.31633916  0.98625850  0.88266848    -0.01000
C578        C  0.34607862  0.99149813  0.86653573    -0.09000
C579        C  0.34845853  0.98670078  0.83258994    -0.17900
C580        C  0.32109536  0.97587297  0.81342997     0.04500
C581        C  0.29091032  0.97050542  0.82978057     0.18700
C582        C  0.28860786  0.97637477  0.86394290    -0.19300
C583        C  0.26356839  0.95824297  0.81212749    -0.20600
C584        C  0.26591852  0.95004052  0.77886359    -0.19100
C585        C  0.29533478  0.95494784  0.76208752     0.20100
C586        C  0.32297115  0.96906898  0.77890628     0.02200
C587        C  0.35139022  0.97561727  0.76046603    -0.13800
C588        C  0.35274784  0.96734608  0.72718396    -0.11500
C589        C  0.32605976  0.95221523  0.71096710     0.01800
C590        C  0.29738034  0.94586890  0.72859077    -0.23700
H591        H  0.36790615  0.99901512  0.88032231     0.09800
H592        H  0.37240823  0.99061804  0.82232487     0.13300
H593        H  0.26554669  0.97184546  0.87618810     0.12100
H594        H  0.24043978  0.95410024  0.82435989     0.13200
H595        H  0.24454908  0.93982180  0.76615524     0.12300
H596        H  0.37286371  0.98752994  0.77089085     0.09400
H597        H  0.37494122  0.97298253  0.71387684     0.12600
H598        H  0.27663899  0.93411986  0.71617004     0.14500
C599        C  0.01783694  0.32272006  0.72305989    -0.01000
C600        C  0.99038787  0.33754836  0.73744458    -0.09000
C601        C  0.98533579  0.33496473  0.77144815    -0.17900
C602        C  0.00766497  0.31717962  0.79223103     0.04500
C603        C  0.03484349  0.30128892  0.77724283     0.18700
C604        C  0.03982618  0.30453146  0.74322219    -0.19300
C605        C  0.05705068  0.28235143  0.79629435    -0.20600
C606        C  0.05299024  0.27891445  0.83010604    -0.19100
C607        C  0.02705449  0.29495593  0.84591055     0.20100
C608        C  0.00418432  0.31464199  0.82726079     0.02200
C609        C  0.97950738  0.33173155  0.84467923    -0.13800
C610        C  0.97804986  0.32984009  0.87905332    -0.11500
C611        C  0.00034427  0.31014371  0.89720229     0.01800
C612        C  0.02447990  0.29229518  0.88044708    -0.23700
H613        H  0.97248051  0.35083638  0.72232707     0.09800
H614        H  0.96354650  0.34681241  0.78068072     0.13300
H615        H  0.06117491  0.29301652  0.73227619     0.12100
H616        H  0.07772847  0.27003376  0.78493138     0.13200
H617        H  0.07065363  0.26407995  0.84410617     0.12300
H618        H  0.96166354  0.34764915  0.83255839     0.09400
H619        H  0.95952388  0.34420382  0.89165746     0.12600
H620        H  0.04234625  0.27772425  0.89450649     0.14500
C621        C  0.27817350  0.96855502  0.65061339    -0.01000
C622        C  0.26747797  0.99083230  0.67464545    -0.09000
C623        C  0.23380162  0.99613266  0.67951926    -0.17900
C624        C  0.20977626  0.97991979  0.65968039     0.04500
C625        C  0.22099776  0.96021986  0.63306324     0.18700
C626        C  0.25480341  0.95456882  0.62899370    -0.19300
C627        C  0.19841114  0.94541037  0.61124599    -0.20600
C628        C  0.16475595  0.94921191  0.61560508    -0.19100
C629        C  0.15287184  0.96701148  0.64252077     0.20100
C630        C  0.17512613  0.98232299  0.66523867     0.02200
C631        C  0.16169605  0.99836921  0.69301833    -0.13800
C632        C  0.12758870  0.99945133  0.69770310    -0.11500
C633        C  0.10584893  0.98518798  0.67462739     0.01800
C634        C  0.11874989  0.96909669  0.64706882    -0.23700
H635        H  0.28520519  0.00319564  0.69057880     0.09800
H636        H  0.22727832  0.01290543  0.69904024     0.13300
H637        H  0.26296240  0.93775809  0.60993490     0.12100
H638        H  0.20684340  0.93064935  0.59070315     0.13200
H639        H  0.14790013  0.93745552  0.59824941     0.12300
H640        H  0.17697815  0.00970116  0.71183567     0.09400
H641        H  0.11816368  0.01193434  0.71922641     0.12600
H642        H  0.10212666  0.95751315  0.62933946     0.14500
C643        C  0.00987841  0.09104873  0.67678179    -0.01000
C644        C  0.98759027  0.11107176  0.69349411    -0.09000
C645        C  0.99110528  0.14542406  0.69366154    -0.17900
C646        C  0.01774715  0.16073440  0.67768156     0.04500
C647        C  0.04081151  0.13999267  0.66148049     0.18700
C648        C  0.03632589  0.10551938  0.66063768    -0.19300
C649        C  0.06844994  0.15372144  0.64665727    -0.20600
C650        C  0.07355265  0.18772648  0.64721711    -0.19100
C651        C  0.05080866  0.20889420  0.66204253     0.20100
C652        C  0.02249111  0.19577068  0.67739440     0.02200
C653        C  0.99983255  0.21836859  0.69113450    -0.13800
C654        C  0.00486093  0.25247035  0.68922477    -0.11500
C655        C  0.03280248  0.26524789  0.67410979     0.01800
C656        C  0.05582464  0.24324674  0.66085281    -0.23700
H657        H  0.96734067  0.10001757  0.70654497     0.09800
H658        H  0.97297662  0.15919442  0.70711097     0.13300
H659        H  0.05405306  0.08978002  0.64843155     0.12100
H660        H  0.08631071  0.13803463  0.63462641     0.13200
H661        H  0.09518870  0.19758857  0.63549234     0.12300
H662        H  0.97741991  0.21056988  0.70257368     0.09400
H663        H  0.98605639  0.26889280  0.69852988     0.12600
H664        H  0.07735665  0.25297370  0.64880518     0.14500
C665        C  0.00901008  0.88883893  0.69175698    -0.01000
C666        C  0.03724368  0.87484059  0.67836774    -0.09000
C667        C  0.04314535  0.84092043  0.68059046    -0.17900
C668        C  0.02040176  0.81964112  0.69584157     0.04500
C669        C  0.99138447  0.83399024  0.70901805     0.18700
C670        C  0.98626770  0.86852731  0.70750187    -0.19300
C671        C  0.96750001  0.81368367  0.72302609    -0.20600
C672        C  0.97141052  0.77937014  0.72346723    -0.19100
C673        C  0.99969538  0.76451975  0.71067492     0.20100
C674        C  0.02500241  0.78457609  0.69755121     0.02200
C675        C  0.05370729  0.76861708  0.68629398    -0.13800
C676        C  0.05632515  0.73423288  0.68619576    -0.11500
C677        C  0.03057818  0.71431792  0.69716814     0.01800
C678        C  0.00252404  0.72969623  0.71010479    -0.23700
H679        H  0.05510481  0.89040124  0.66633750     0.09800
H680        H  0.06540689  0.83213194  0.66946975     0.13300
H681        H  0.96430579  0.87950685  0.71778487     0.12100
H682        H  0.94529917  0.82436044  0.73307424     0.13200
H683        H  0.95209967  0.76432575  0.73376992     0.12300
H684        H  0.07460037  0.78193110  0.67722980     0.09400
H685        H  0.07855213  0.72310969  0.67672632     0.12600
H686        H  0.98225466  0.71466575  0.71840002     0.14500
C687        C  0.90355496  0.99595463  0.68963462    -0.01000
C688        C  0.88327807  0.98133420  0.66542875    -0.09000
C689        C  0.84914121  0.98626381  0.66525710    -0.17900
C690        C  0.83424105  0.00695030  0.68887451     0.04500
C691        C  0.85505531  0.02192420  0.71321676     0.18700
C692        C  0.88914620  0.01559052  0.71392468    -0.19300
C693        C  0.84195617  0.04421938  0.73592079    -0.20600
C694        C  0.80886941  0.05307802  0.73412968    -0.19100
C695        C  0.78777929  0.03880547  0.71049400     0.20100
C696        C  0.79974597  0.01451716  0.68839492     0.02200
C697        C  0.77665570  0.99919588  0.66672876    -0.13800
C698        C  0.74337654  0.00867269  0.66622362    -0.11500
C699        C  0.73219068  0.03410587  0.68672574     0.01800
C700        C  0.75475907  0.04899376  0.70871311    -0.23700
H701        H  0.89393257  0.96616509  0.64632245     0.09800
H702        H  0.83520983  0.97463930  0.64558900     0.13300
H703        H  0.90474971  0.02745137  0.73237641     0.12100
H704        H  0.85763521  0.05574730  0.75449615     0.13200
H705        H  0.79968986  0.07123284  0.75140557     0.12300
H706        H  0.78352421  0.97947650  0.65028662     0.09400
H707        H  0.72640862  0.99592832  0.64980860     0.12600
H708        H  0.74658445  0.06894198  0.72446996     0.14500
C709        C  0.72865676  0.32604333  0.03122797    -0.01000
C710        C  0.74067892  0.30508748  0.00662172    -0.09000
C711        C  0.77452320  0.30253906  0.00097284    -0.17900
C712        C  0.79756901  0.32173994  0.01920997     0.04500
C713        C  0.78522754  0.34312472  0.04393902     0.18700
C714        C  0.75135786  0.34438620  0.05022989    -0.19300
C715        C  0.80660458  0.36394951  0.06163446    -0.20600
C716        C  0.84003302  0.36447533  0.05492086    -0.19100
C717        C  0.85312296  0.34339816  0.03109839     0.20100
C718        C  0.83225618  0.32114113  0.01338396     0.02200
C719        C  0.84715841  0.29902831  0.99100208    -0.13800
C720        C  0.88127023  0.29901579  0.98660922    -0.11500
C721        C  0.90142929  0.32160933  0.00350907     0.01800
C722        C  0.88716238  0.34400006  0.02540397    -0.23700
H723        H  0.72387297  0.29152034  0.99068968     0.09800
H724        H  0.78177037  0.28636781  0.98124521     0.13300
H725        H  0.74254567  0.36071958  0.06937351     0.12100
H726        H  0.79729497  0.38045695  0.08039431     0.13200
H727        H  0.85582834  0.38124566  0.06873167     0.12300
H728        H  0.83324003  0.28087853  0.97723596     0.09400
H729        H  0.89198480  0.28125974  0.96985490     0.12600
H730        H  0.90284552  0.36099224  0.03910615     0.14500
C731        C  0.73478845  0.02104774  0.35327330    -0.01000
C732        C  0.75652320  0.00986286  0.37813152    -0.09000
C733        C  0.79039880  0.01328170  0.37543509    -0.17900
C734        C  0.80419386  0.02713006  0.34691948     0.04500
C735        C  0.78237422  0.03788168  0.32120915     0.18700
C736        C  0.74793910  0.03602062  0.32514416    -0.19300
C737        C  0.79517490  0.04913713  0.29137371    -0.20600
C738        C  0.82910814  0.04906679  0.28630988    -0.19100
C739        C  0.85118687  0.03916938  0.31148115     0.20100
C740        C  0.83891726  0.02925547  0.34255503     0.02200
C741        C  0.86192107  0.02186762  0.36806367    -0.13800
C742        C  0.89560148  0.02256334  0.36253106    -0.11500
C743        C  0.90784935  0.03050305  0.33141769     0.01800
C744        C  0.88544751  0.03909789  0.30594813    -0.23700
H745        H  0.74731168  0.99687253  0.39932888     0.09800
H746        H  0.80515143  0.00307662  0.39537783     0.13300
H747        H  0.73149481  0.04517051  0.30583398     0.12100
H748        H  0.77878871  0.05705876  0.27143802     0.13200
H749        H  0.83815035  0.05701109  0.26262108     0.12300
H750        H  0.85472227  0.01591856  0.39281930     0.09400
H751        H  0.91217751  0.01631453  0.38286323     0.12600
H752        H  0.89463979  0.04597511  0.28197812     0.14500
C753        C  0.66896330  0.27642062  0.02362802    -0.01000
C754        C  0.68829266  0.25960530  0.04738530    -0.09000
C755        C  0.69046750  0.22512836  0.04779974    -0.17900
C756        C  0.67269169  0.20578225  0.02465439     0.04500
C757        C  0.65193022  0.22263722  0.00138310     0.18700
C758        C  0.65064346  0.25761922  0.00069427    -0.19300
C759        C  0.63239561  0.20440709  0.97915755    -0.20600
C760        C  0.63275143  0.16988773  0.97980722    -0.19100
C761        C  0.65349349  0.15262405  0.00193996     0.20100
C762        C  0.67438193  0.17033089  0.02415661     0.02200
C763        C  0.69642613  0.15176593  0.04453229    -0.13800
C764        C  0.69723400  0.11713653  0.04324415    -0.11500
C765        C  0.67567782  0.09980569  0.02232673     0.01800
C766        C  0.65375570  0.11771374  0.00178337    -0.23700
H767        H  0.70175513  0.27333573  0.06614228     0.09800
H768        H  0.70566896  0.21435104  0.06705435     0.13300
H769        H  0.63555662  0.27007038  0.98218626     0.12100
H770        H  0.61635633  0.21693467  0.96143966     0.13200
H771        H  0.61696762  0.15658501  0.96256883     0.12300
H772        H  0.71378783  0.16327992  0.06125273     0.09400
H773        H  0.71445535  0.10378072  0.05915398     0.12600
H774        H  0.63739330  0.10440459  0.98507458     0.14500
C775        C  0.67486121  0.99251798  0.12067085    -0.01000
C776        C  0.64708347  0.00309212  0.13776939    -0.09000
C777        C  0.64766693  0.00510471  0.17221635    -0.17900
C778        C  0.67616913  0.99621231  0.19095679     0.04500
C779        C  0.70370418  0.98374812  0.17370866     0.18700
C780        C  0.70300656  0.98247920  0.13893751    -0.19300
C781        C  0.73174676  0.97271341  0.19130093    -0.20600
C782        C  0.73293866  0.97355138  0.22570061    -0.19100
C783        C  0.70653708  0.98644741  0.24343506     0.20100
C784        C  0.67814583  0.99878685  0.22617049     0.02200
C785        C  0.65303495  0.01348901  0.24487926    -0.13800
C786        C  0.65526187  0.01442706  0.27919616    -0.11500
C787        C  0.68233181  0.00069756  0.29636668     0.01800
C788        C  0.70812065  0.98684398  0.27831590    -0.23700
H789        H  0.62494149  0.01067300  0.12440564     0.09800
H790        H  0.62528393  0.01344830  0.18346569     0.13300
H791        H  0.72450105  0.97364299  0.12605195     0.12100
H792        H  0.75281228  0.96298132  0.17835428     0.13200
H793        H  0.75479371  0.96435002  0.23850384     0.12300
H794        H  0.63141191  0.02467460  0.23372960     0.09400
H795        H  0.63514622  0.02547491  0.29260340     0.12600
H796        H  0.72903310  0.97591778  0.29136179     0.14500
C797        C  0.68599938  0.05135978  0.74673868    -0.01000
C798        C  0.70027797  0.02147143  0.75763122    -0.09000
C799        C  0.70111836  0.01298586  0.79118817    -0.17900
C800        C  0.68630910  0.03353497  0.81504804     0.04500
C801        C  0.67142496  0.06351401  0.80387805     0.18700
C802        C  0.67236562  0.07253101  0.77043783    -0.19300
C803        C  0.65468044  0.08393058  0.82593089    -0.20600
C804        C  0.65167605  0.07484315  0.85879448    -0.19100
C805        C  0.66637749  0.04571436  0.87075809     0.20100
C806        C  0.68475244  0.02505744  0.84934273     0.02200
C807        C  0.70089971  0.99707309  0.86334786    -0.13800
C808        C  0.69858052  0.98989003  0.89706316    -0.11500
C809        C  0.67931350  0.00964053  0.91756389     0.01800
C810        C  0.66316052  0.03740084  0.90422286    -0.23700
H811        H  0.70988703  0.00385597  0.74014516     0.09800
H812        H  0.71215761  0.98945681  0.79752739     0.13300
H813        H  0.66132975  0.09582491  0.76276684     0.12100
H814        H  0.64310283  0.10673430  0.81752282     0.13200
H815        H  0.63797170  0.09088364  0.87504825     0.12300
H816        H  0.71610916  0.98079013  0.84902265     0.09400
H817        H  0.71171986  0.96865964  0.90714779     0.12600
H818        H  0.64899798  0.05326258  0.92028414     0.14500
C819        C  0.67322111  0.89504714  0.01295220    -0.01000
C820        C  0.69355470  0.87575203  0.03365276    -0.09000
C821        C  0.68973321  0.84132900  0.03515934    -0.17900
C822        C  0.66567002  0.82497638  0.01540595     0.04500
C823        C  0.64684273  0.84444846  0.99266801     0.18700
C824        C  0.65022953  0.87915340  0.99217680    -0.19300
C825        C  0.62447029  0.82917864  0.97085715    -0.20600
C826        C  0.61991188  0.79500692  0.97152014    -0.19100
C827        C  0.63663946  0.77529737  0.99487842     0.20100
C828        C  0.65945454  0.79012919  0.01745360     0.02200
C829        C  0.67403136  0.76968612  0.04195957    -0.13800
C830        C  0.66642891  0.73608563  0.04383650    -0.11500
C831        C  0.64509451  0.72099474  0.02069943     0.01800
C832        C  0.63019088  0.74096141  0.99623851    -0.23700
H833        H  0.71171178  0.88747677  0.04965479     0.09800
H834        H  0.70605166  0.82814636  0.05190668     0.13300
H835        H  0.63487544  0.89391873  0.97557011     0.12100
H836        H  0.61036414  0.84379983  0.95309932     0.13200
H837        H  0.60246057  0.78403898  0.95422668     0.12300
H838        H  0.69054260  0.77918229  0.06076981     0.09400
H839        H  0.67734914  0.72170614  0.06378594     0.12600
H840        H  0.61352424  0.72990698  0.97829444     0.14500
loop_ 
_geom_bond_atom_site_label_1 
_geom_bond_atom_site_label_2 
_geom_bond_distance 
_geom_bond_site_symmetry_2 
_ccdc_geom_bond_type 
N1            N2   1.324       .  A
N1            C5   1.342       .  A
N1           Cu9   2.085       .  S
N2            C3   1.352   1_556  A
N2           Cu8   2.113       .  S
C3            C4   1.393       .  A
C3            H6   1.082       .  S
C4            C5   1.386   1_554  A
C4          C262   1.479       .  S
C5            H7   1.083       .  S
Cu8          N11   2.112       .  S
Cu9          N19   2.085       .  S
Cu10         N12   2.076       .  S
Cu10         N18   2.077       .  S
N11          N12   1.322       .  A
N11          C15   1.357       .  A
N12          C13   1.338       .  A
C13          C14   1.384       .  A
C13          H16   1.083       .  S
C14          C15   1.396       .  A
C14         C241   1.484       .  S
C15          H17   1.080   1_556  S
N18          N19   1.319       .  A
N18          C22   1.347       .  A
N19          C20   1.349       .  A
C20          C21   1.389       .  A
C20          H23   1.082       .  S
C21          C22   1.387       .  A
C21          C45   1.483       .  S
C22          H24   1.081       .  S
N25          N26   1.323       .  A
N25          C29   1.340       .  A
N25         Cu33   2.081       .  S
N26          C27   1.352   1_556  A
N26         Cu32   2.098       .  S
C27          C28   1.390       .  A
C27          H30   1.082       .  S
C28          C29   1.385   1_554  A
C28         C122   1.476       .  S
C29          H31   1.082       .  S
Cu32         N35   2.098       .  S
Cu33         N43   2.081       .  S
Cu34         N36   2.079       .  S
Cu34         N42   2.079       .  S
N35          N36   1.323       .  A
N35          C39   1.351   1_556  A
N36          C37   1.341       .  A
C37          C38   1.383       .  A
C37          H40   1.082       .  S
C38          C39   1.390   1_556  A
C38         C213   1.475   1_556  S
C39          H41   1.082       .  S
N42          N43   1.319       .  A
N42          C46   1.348       .  A
N43          C44   1.348       .  A
C44          C45   1.388       .  A
C44          H47   1.082       .  S
C45          C46   1.388       .  A
C46          H48   1.082       .  S
N49          N50   1.320       .  A
N49          C53   1.336       .  A
N49         Cu57   2.062       .  S
N50          C51   1.358       .  A
N50         Cu56   2.111       .  S
C51          C52   1.398       .  A
C51          H54   1.082       .  S
C52          C53   1.383       .  A
C52         C255   1.486       .  S
C53          H55   1.083       .  S
Cu56         N59   2.115       .  S
Cu57         N67   2.068       .  S
Cu58         N60   2.073       .  S
Cu58         N66   2.078       .  S
N59          N60   1.323       .  A
N59          C63   1.353       .  A
N60          C61   1.340       .  A
C61          C62   1.382       .  A
C61          H64   1.082       .  S
C62          C63   1.395       .  A
C62         C115   1.484       .  S
C63          H65   1.081       .  S
N66          N67   1.320       .  A
N66          C70   1.350       .  A
N67          C68   1.342       .  A
C68          C69   1.382       .  A
C68          H71   1.082       .  S
C69          C70   1.388       .  A
C69          C93   1.475       .  S
C70          H72   1.082       .  S
N73          N74   1.322   1_545  A
N73          C77   1.340   1_545  A
N73         Cu81   2.066       .  S
N74          C75   1.353       .  A
N74         Cu80   2.103       .  S
C75          C76   1.390       .  A
C75          H78   1.082       .  S
C76          C77   1.380       .  A
C76         C150   1.474       .  S
C77          H79   1.082   1_565  S
Cu80         N83   2.104       .  S
Cu81         N91   2.066       .  S
Cu82         N84   2.082       .  S
Cu82         N90   2.081       .  S
N83          N84   1.324   1_565  A
N83          C87   1.352       .  A
N84          C85   1.342       .  A
C85          C86   1.383   1_545  A
C85          H88   1.082       .  S
C86          C87   1.391       .  A
C86         C206   1.479       .  S
C87          H89   1.082       .  S
N90          N91   1.319       .  A
N90          C94   1.350       .  A
N91          C92   1.343       .  A
C92          C93   1.383       .  A
C92          H95   1.082       .  S
C93          C94   1.388       .  A
C94          H96   1.082       .  S
O97        Cu105   2.018   1_556  S
O97         C107   1.278   1_565  A
O98        Cu105   2.008       .  S
O98         C108   1.277       .  A
O99        Cu105   2.030       .  S
O99         C109   1.280       .  A
O100       Cu105   2.039   1_545  S
O100        C110   1.282       .  A
O101       Cu106   2.005   1_545  S
O101        C110   1.276       .  A
O102       Cu106   2.017       .  S
O102        C109   1.278       .  A
O103       Cu106   2.039       .  S
O103        C108   1.283       .  A
O104       Cu106   2.020   1_546  S
O104        C107   1.279       .  A
Cu105      Cu106   2.371       .  S
C107        C809   1.477       .  S
C108        C775   1.489       .  S
C109        C819   1.483       .  S
C110        C765   1.482       .  S
N111        C115   1.364       .  A
N111        C112   1.366   1_545  A
N111        C731   1.447       .  S
C112        C113   1.383       .  A
C112        C787   1.488   1_565  S
C113        C114   1.369       .  A
C113        H116   1.082       .  S
C114        C115   1.381   1_565  A
C114        H117   1.083       .  S
N118        C122   1.364       .  A
N118        C119   1.366       .  A
N118        C753   1.452       .  S
C119        C120   1.383       .  A
C119        C709   1.494       .  S
C120        C121   1.367       .  A
C120        H123   1.082       .  S
C121        C122   1.382       .  A
C121        H124   1.083       .  S
O125       Cu133   2.022   1_655  S
O125        C135   1.280       .  A
O126       Cu133   2.035       .  S
O126        C136   1.282       .  A
O127       Cu133   1.996   1_545  S
O127        C137   1.275       .  A
O128       Cu133   2.011       .  S
O128        C138   1.276       .  A
O129       Cu134   2.008       .  S
O129        C138   1.278       .  A
O130       Cu134   2.020   1_545  S
O130        C137   1.279       .  A
O131       Cu134   1.992       .  S
O131        C136   1.276       .  A
O132       Cu134   2.007   1_655  S
O132        C135   1.277       .  A
Cu133      Cu134   2.375       .  S
C135        C687   1.480       .  S
C136        C633   1.481       .  S
C137        C643   1.466       .  S
C138        C665   1.468       .  S
N139        C143   1.359       .  A
N139        C140   1.361       .  A
N139        C599   1.447       .  S
C140        C141   1.382       .  A
C140        C655   1.484       .  S
C141        C142   1.372       .  A
C141        H144   1.082       .  S
C142        C143   1.383       .  A
C142        H145   1.083       .  S
C143        C278   1.473       .  S
N146        C150   1.359       .  A
N146        C147   1.361       .  A
N146        C621   1.444       .  S
C147        C148   1.382       .  A
C147        C589   1.484       .  S
C148        C149   1.373       .  A
C148        H151   1.083       .  S
C149        C150   1.383       .  A
C149        H152   1.082       .  S
O153       Cu161   2.022       .  S
O153        C163   1.279       .  A
O154       Cu161   2.035   1_545  S
O154        C164   1.281       .  A
O155       Cu161   2.025       .  S
O155        C165   1.279       .  A
O156       Cu161   2.024   1_554  S
O156        C166   1.279       .  A
O157       Cu162   2.012   1_554  S
O157        C166   1.279       .  A
O158       Cu162   2.010       .  S
O158        C165   1.279       .  A
O159       Cu162   2.008   1_545  S
O159        C164   1.277       .  A
O160       Cu162   2.012       .  S
O160        C163   1.278       .  A
Cu161      Cu162   2.370       .  S
C163        C567   1.478       .  S
C164        C511   1.484       .  S
C165        C577   1.486       .  S
C166        C545   1.484       .  S
O167       Cu175   2.010       .  S
O167        C177   1.278       .  A
O168       Cu175   2.020   1_565  S
O168        C178   1.278       .  A
O169       Cu175   2.044   1_655  S
O169        C179   1.282       .  A
O170       Cu175   2.028       .  S
O170        C180   1.280       .  A
O171       Cu176   1.989       .  S
O171        C180   1.275       .  A
O172       Cu176   1.983   1_655  S
O172        C179   1.275       .  A
O173       Cu176   2.010   1_565  S
O173        C178   1.279       .  A
O174       Cu176   2.018       .  S
O174        C177   1.280       .  A
Cu175      Cu176   2.371       .  S
C177        C467   1.483       .  S
C178        C501   1.478       .  S
C179        C743   1.485       .  S
C180        C457   1.475       .  S
O181       Cu189   2.053       .  S
O181        C191   1.283       .  A
O182       Cu189   2.047   1_556  S
O182        C192   1.282       .  A
O183       Cu189   2.006       .  S
O183        C193   1.277   1_554  A
O184       Cu189   2.009   1_655  S
O184        C194   1.277       .  A
O185       Cu190   2.019   1_655  S
O185        C194   1.279   1_556  A
O186       Cu190   2.024       .  S
O186        C193   1.281       .  A
O187       Cu190   1.996       .  S
O187        C192   1.275       .  A
O188       Cu190   1.989   1_554  S
O188        C191   1.276       .  A
Cu189      Cu190   2.367   1_554  S
C191        C423   1.490       .  S
C192        C611   1.479       .  S
C193        C401   1.483       .  S
C194        C721   1.476       .  S
N195        C199   1.362       .  A
N195        C196   1.363       .  A
N195        C435   1.451       .  S
C196        C197   1.383       .  A
C196        C479   1.481       .  S
C197        C198   1.371       .  A
C197        H200   1.083       .  S
C198        C199   1.380       .  A
C198        H201   1.082       .  S
C199        C302   1.476       .  S
N202        C206   1.362       .  A
N202        C203   1.363       .  A
N202        C445   1.443       .  S
C203        C204   1.383       .  A
C203        C533   1.488       .  S
C204        C205   1.371       .  A
C204        H207   1.082       .  S
C205        C206   1.381       .  A
C205        H208   1.082       .  S
N209        C213   1.361       .  A
N209        C210   1.361       .  A
N209        C523   1.446       .  S
C210        C211   1.381       .  A
C210        C413   1.481       .  S
C211        C212   1.371       .  A
C211        H214   1.082       .  S
C212        C213   1.383       .  A
C212        H215   1.083       .  S
O216       Cu224   2.003       .  S
O216        C226   1.278       .  A
O217       Cu224   2.021   1_556  S
O217        C227   1.278       .  A
O218       Cu224   2.015   1_455  S
O218        C228   1.279       .  A
O219       Cu224   2.011       .  S
O219        C229   1.278       .  A
O220       Cu225   2.020       .  S
O220        C229   1.279       .  A
O221       Cu225   2.021   1_455  S
O221        C228   1.279       .  A
O222       Cu225   2.016   1_556  S
O222        C227   1.279       .  A
O223       Cu225   2.032       .  S
O223        C226   1.280       .  A
Cu224      Cu225   2.372       .  S
C226        C347   1.481       .  S
C227        C379   1.477       .  S
C228        C313   1.479       .  S
C229        C357   1.479       .  S
N230        C234   1.363       .  A
N230        C231   1.361       .  A
N230        C335   1.442       .  S
C231        C232   1.382       .  A
C231        C489   1.481       .  S
C232        C233   1.371       .  A
C232        H235   1.082       .  S
C233        C234   1.382       .  A
C233        H236   1.083       .  S
C234        C292   1.480       .  S
N237        C241   1.369   1_554  A
N237        C238   1.370       .  A
N237        C555   1.451       .  S
C238        C239   1.382       .  A
C238        C325   1.494       .  S
C239        C240   1.364       .  A
C239        H242   1.082       .  S
C240        C241   1.382   1_554  A
C240        H243   1.082       .  S
N244        C248   1.363       .  A
N244        C245   1.364       .  A
N244        C391   1.449       .  S
C245        C246   1.384       .  A
C245        C677   1.491       .  S
C246        C247   1.368       .  A
C246        H249   1.082       .  S
C247        C248   1.381       .  A
C247        H250   1.082       .  S
C248        C268   1.474       .  S
N251        C255   1.365       .  A
N251        C252   1.369       .  A
N251        C699   1.448       .  S
C252        C253   1.384       .  A
C252        C797   1.501       .  S
C253        C254   1.367       .  A
C253        H256   1.081       .  S
C254        C255   1.383       .  A
C254        H257   1.083       .  S
N258        C262   1.365       .  A
N258        C259   1.367       .  A
N258        C831   1.454       .  S
C259        C260   1.383       .  A
C259        C369   1.497       .  S
C260        C261   1.368       .  A
C260        H263   1.081       .  S
C261        C262   1.383       .  A
C261        H264   1.083       .  S
N265        N266   1.323       .  A
N265        C269   1.341       .  A
N265       Cu273   2.080       .  S
N266        C267   1.351   1_655  A
N266       Cu272   2.100   1_655  S
C267        C268   1.391       .  A
C267        H270   1.082       .  S
C268        C269   1.384   1_455  A
C269        H271   1.082       .  S
Cu272       N275   2.099   1_455  S
Cu273       N283   2.080       .  S
Cu274       N276   2.068       .  S
Cu274       N282   2.069       .  S
N275        N276   1.323       .  A
N275        C279   1.352   1_655  A
N276        C277   1.339       .  A
C277        C278   1.380   1_655  A
C277        H280   1.082       .  S
C278        C279   1.389       .  A
C279        H281   1.082       .  S
N282        N283   1.319       .  A
N282        C286   1.347       .  A
N283        C284   1.347       .  A
C284        C285   1.388       .  A
C284        H287   1.081       .  S
C285        C286   1.386       .  A
C285        C309   1.479       .  S
C286        H288   1.082       .  S
N289        N290   1.322   1_655  A
N289        C293   1.340       .  A
N289       Cu297   2.069       .  S
N290        C291   1.353       .  A
N290       Cu296   2.103       .  S
C291        C292   1.392       .  A
C291        H294   1.081       .  S
C292        C293   1.382   1_455  A
C293        H295   1.082       .  S
Cu296       N299   2.104       .  S
Cu297       N307   2.070       .  S
Cu298       N300   2.085       .  S
Cu298       N306   2.085       .  S
N299        N300   1.325   1_455  A
N299        C303   1.351       .  A
N300        C301   1.344   1_655  A
C301        C302   1.383       .  A
C301        H304   1.082   1_455  S
C302        C303   1.388       .  A
C303        H305   1.082       .  S
N306        N307   1.320       .  A
N306        C310   1.349       .  A
N307        C308   1.345       .  A
C308        C309   1.384       .  A
C308        H311   1.082       .  S
C309        C310   1.389       .  A
C310        H312   1.081       .  S
C313        C314   1.401   1_554  A
C313        C318   1.398       .  A
C314        C315   1.403       .  A
C314        H327   1.084       .  S
C315        C316   1.416   1_556  A
C315        H328   1.078       .  S
C316        C322   1.436       .  A
C316        C317   1.425       .  A
C317        C319   1.398       .  A
C317        C318   1.405       .  A
C318        H329   1.085       .  S
C319        C320   1.387       .  A
C319        H330   1.084       .  S
C320        C321   1.399       .  A
C320        H331   1.084       .  S
C321        C322   1.421       .  A
C321        C326   1.402       .  A
C322        C323   1.419   1_554  A
C323        C324   1.406       .  A
C323        H332   1.078       .  S
C324        C325   1.403   1_556  A
C324        H333   1.083       .  S
C325        C326   1.402       .  A
C326        H334   1.085       .  S
C335        C336   1.397       .  A
C335        C340   1.404   1_455  A
C336        C337   1.392       .  A
C336        H349   1.082       .  S
C337        C338   1.413   1_455  A
C337        H350   1.077       .  S
C338        C344   1.429       .  A
C338        C339   1.422       .  A
C339        C341   1.402       .  A
C339        C340   1.411       .  A
C340        H351   1.083       .  S
C341        C342   1.395       .  A
C341        H352   1.084       .  S
C342        C343   1.402       .  A
C342        H353   1.084       .  S
C343        C344   1.422       .  A
C343        C348   1.412       .  A
C344        C345   1.413   1_655  A
C345        C346   1.393   1_455  A
C345        H354   1.078       .  S
C346        C347   1.399       .  A
C346        H355   1.084   1_655  S
C347        C348   1.404       .  A
C348        H356   1.085       .  S
C357        C358   1.401       .  A
C357        C362   1.401       .  A
C358        C359   1.397       .  A
C358        H371   1.083       .  S
C359        C360   1.414       .  A
C359        H372   1.080       .  S
C360        C366   1.430       .  A
C360        C361   1.422       .  A
C361        C363   1.400   1_554  A
C361        C362   1.407       .  A
C362        H373   1.086   1_554  S
C363        C364   1.391       .  A
C363        H374   1.084       .  S
C364        C365   1.400   1_556  A
C364        H375   1.084       .  S
C365        C366   1.421       .  A
C365        C370   1.406       .  A
C366        C367   1.413       .  A
C367        C368   1.396       .  A
C367        H376   1.079       .  S
C368        C369   1.405       .  A
C368        H377   1.083       .  S
C369        C370   1.404       .  A
C370        H378   1.082   1_554  S
C379        C380   1.400       .  A
C379        C384   1.398   1_655  A
C380        C381   1.404       .  A
C380        H393   1.083       .  S
C381        C382   1.417       .  A
C381        H394   1.078       .  S
C382        C388   1.435       .  A
C382        C383   1.424   1_655  A
C383        C385   1.398       .  A
C383        C384   1.404       .  A
C384        H395   1.085       .  S
C385        C386   1.388       .  A
C385        H396   1.084       .  S
C386        C387   1.399       .  A
C386        H397   1.084       .  S
C387        C388   1.421   1_455  A
C387        C392   1.402       .  A
C388        C389   1.418       .  A
C389        C390   1.405       .  A
C389        H398   1.079       .  S
C390        C391   1.402   1_655  A
C390        H399   1.082       .  S
C391        C392   1.402       .  A
C392        H400   1.084       .  S
C401        C402   1.403   1_556  A
C401        C406   1.400       .  A
C402        C403   1.400       .  A
C402        H415   1.083       .  S
C403        C404   1.414       .  A
C403        H416   1.078       .  S
C404        C410   1.433       .  A
C404        C405   1.424   1_554  A
C405        C407   1.398       .  A
C405        C406   1.405       .  A
C406        H417   1.085       .  S
C407        C408   1.387       .  A
C407        H418   1.084       .  S
C408        C409   1.399       .  A
C408        H419   1.084       .  S
C409        C410   1.422   1_556  A
C409        C414   1.401       .  A
C410        C411   1.420       .  A
C411        C412   1.403       .  A
C411        H420   1.077       .  S
C412        C413   1.398       .  A
C412        H421   1.084       .  S
C413        C414   1.399   1_554  A
C414        H422   1.085       .  S
C423        C424   1.402       .  A
C423        C428   1.406   1_455  A
C424        C425   1.392       .  A
C424        H437   1.083       .  S
C425        C426   1.412       .  A
C425        H438   1.076       .  S
C426        C432   1.432       .  A
C426        C427   1.424   1_455  A
C427        C429   1.402       .  A
C427        C428   1.416       .  A
C428        H439   1.084       .  S
C429        C430   1.396       .  A
C429        H440   1.084       .  S
C430        C431   1.402   1_655  A
C430        H441   1.084       .  S
C431        C432   1.421       .  A
C431        C436   1.413       .  A
C432        C433   1.414       .  A
C433        C434   1.394       .  A
C433        H442   1.076       .  S
C434        C435   1.401       .  A
C434        H443   1.083       .  S
C435        C436   1.406       .  A
C436        H444   1.082       .  S
C445        C446   1.401   1_565  A
C445        C450   1.399       .  A
C446        C447   1.400       .  A
C446        H459   1.082       .  S
C447        C448   1.416       .  A
C447        H460   1.078       .  S
C448        C454   1.431       .  A
C448        C449   1.422   1_545  A
C449        C451   1.399       .  A
C449        C450   1.402       .  A
C450        H461   1.083       .  S
C451        C452   1.388       .  A
C451        H462   1.084       .  S
C452        C453   1.399       .  A
C452        H463   1.084       .  S
C453        C454   1.422   1_565  A
C453        C458   1.401       .  A
C454        C455   1.417       .  A
C455        C456   1.401       .  A
C455        H464   1.078       .  S
C456        C457   1.399       .  A
C456        H465   1.083       .  S
C457        C458   1.400   1_545  A
C458        H466   1.085       .  S
C467        C468   1.400       .  A
C467        C472   1.404       .  A
C468        C469   1.397       .  A
C468        H481   1.083       .  S
C469        C470   1.417       .  A
C469        H482   1.077       .  S
C470        C476   1.430       .  A
C470        C471   1.421       .  A
C471        C473   1.401       .  A
C471        C472   1.407       .  A
C472        H483   1.084       .  S
C473        C474   1.393       .  A
C473        H484   1.084       .  S
C474        C475   1.400       .  A
C474        H485   1.084       .  S
C475        C476   1.425       .  A
C475        C480   1.411       .  A
C476        C477   1.412       .  A
C477        C478   1.392       .  A
C477        H486   1.077       .  S
C478        C479   1.399       .  A
C478        H487   1.084       .  S
C479        C480   1.401       .  A
C480        H488   1.084       .  S
C489        C490   1.398   1_455  A
C489        C494   1.403       .  A
C490        C491   1.390       .  A
C490        H503   1.084       .  S
C491        C492   1.411   1_655  A
C491        H504   1.077       .  S
C492        C498   1.429   1_455  A
C492        C493   1.424       .  A
C493        C495   1.401       .  A
C493        C494   1.414       .  A
C494        H505   1.084       .  S
C495        C496   1.396       .  A
C495        H506   1.084       .  S
C496        C497   1.403       .  A
C496        H507   1.084       .  S
C497        C498   1.421   1_455  A
C497        C502   1.411       .  A
C498        C499   1.415       .  A
C499        C500   1.393       .  A
C499        H508   1.077       .  S
C500        C501   1.397   1_655  A
C500        H509   1.084       .  S
C501        C502   1.405       .  A
C502        H510   1.085       .  S
C511        C512   1.400       .  A
C511        C516   1.402   1_556  A
C512        C513   1.402       .  A
C512        H525   1.083       .  S
C513        C514   1.417       .  A
C513        H526   1.078       .  S
C514        C520   1.435       .  A
C514        C515   1.423   1_556  A
C515        C517   1.400       .  A
C515        C516   1.407       .  A
C516        H527   1.085       .  S
C517        C518   1.390       .  A
C517        H528   1.084       .  S
C518        C519   1.399       .  A
C518        H529   1.084       .  S
C519        C520   1.423   1_554  A
C519        C524   1.406       .  A
C520        C521   1.417       .  A
C521        C522   1.401       .  A
C521        H530   1.078       .  S
C522        C523   1.401   1_556  A
C522        H531   1.082       .  S
C523        C524   1.401       .  A
C524        H532   1.084       .  S
C533        C534   1.401       .  A
C533        C538   1.400       .  A
C534        C535   1.407       .  A
C534        H547   1.083       .  S
C535        C536   1.420       .  A
C535        H548   1.078       .  S
C536        C542   1.436       .  A
C536        C537   1.422       .  A
C537        C539   1.398   1_565  A
C537        C538   1.400       .  A
C538        H549   1.085   1_565  S
C539        C540   1.386       .  A
C539        H550   1.084       .  S
C540        C541   1.397       .  A
C540        H551   1.084       .  S
C541        C542   1.424   1_545  A
C541        C546   1.404       .  A
C542        C543   1.416       .  A
C543        C544   1.404       .  A
C543        H552   1.078       .  S
C544        C545   1.403       .  A
C544        H553   1.083       .  S
C545        C546   1.399   1_565  A
C546        H554   1.085       .  S
C555        C556   1.404       .  A
C555        C560   1.404   1_554  A
C556        C557   1.396       .  A
C556        H569   1.082       .  S
C557        C558   1.412   1_554  A
C557        H570   1.078       .  S
C558        C564   1.431       .  A
C558        C559   1.422       .  A
C559        C561   1.400       .  A
C559        C560   1.410       .  A
C560        H571   1.081       .  S
C561        C562   1.393       .  A
C561        H572   1.084       .  S
C562        C563   1.400       .  A
C562        H573   1.084       .  S
C563        C564   1.421       .  A
C563        C568   1.407       .  A
C564        C565   1.416   1_556  A
C565        C566   1.400       .  A
C565        H574   1.078       .  S
C566        C567   1.399   1_554  A
C566        H575   1.084       .  S
C567        C568   1.402       .  A
C568        H576   1.084       .  S
C577        C578   1.401       .  A
C577        C582   1.405       .  A
C578        C579   1.395       .  A
C578        H591   1.083       .  S
C579        C580   1.414       .  A
C579        H592   1.077       .  S
C580        C586   1.430       .  A
C580        C581   1.422       .  A
C581        C583   1.402       .  A
C581        C582   1.410       .  A
C582        H593   1.084       .  S
C583        C584   1.394       .  A
C583        H594   1.084       .  S
C584        C585   1.400       .  A
C584        H595   1.084       .  S
C585        C586   1.423       .  A
C585        C590   1.411       .  A
C586        C587   1.412       .  A
C587        C588   1.393       .  A
C587        H596   1.077       .  S
C588        C589   1.400       .  A
C588        H597   1.084       .  S
C589        C590   1.402       .  A
C590        H598   1.084       .  S
C599        C600   1.400   1_455  A
C599        C604   1.403       .  A
C600        C601   1.402       .  A
C600        H613   1.082       .  S
C601        C602   1.418   1_655  A
C601        H614   1.077       .  S
C602        C608   1.434       .  A
C602        C603   1.420       .  A
C603        C605   1.400       .  A
C603        C604   1.404       .  A
C604        H615   1.084       .  S
C605        C606   1.391       .  A
C605        H616   1.084       .  S
C606        C607   1.399       .  A
C606        H617   1.084       .  S
C607        C608   1.425       .  A
C607        C612   1.410       .  A
C608        C609   1.414   1_455  A
C609        C610   1.398       .  A
C609        H618   1.077       .  S
C610        C611   1.400   1_655  A
C610        H619   1.084       .  S
C611        C612   1.400       .  A
C612        H620   1.085       .  S
C621        C622   1.401       .  A
C621        C626   1.401       .  A
C622        C623   1.400       .  A
C622        H635   1.082   1_565  S
C623        C624   1.416       .  A
C623        H636   1.078   1_565  S
C624        C630   1.431       .  A
C624        C625   1.422       .  A
C625        C627   1.399       .  A
C625        C626   1.403       .  A
C626        H637   1.085       .  S
C627        C628   1.389       .  A
C627        H638   1.084       .  S
C628        C629   1.400       .  A
C628        H639   1.084       .  S
C629        C630   1.422       .  A
C629        C634   1.403       .  A
C630        C631   1.417       .  A
C631        C632   1.401       .  A
C631        H640   1.078   1_565  S
C632        C633   1.400       .  A
C632        H641   1.083   1_565  S
C633        C634   1.402       .  A
C634        H642   1.084       .  S
C643        C644   1.396   1_455  A
C643        C648   1.398       .  A
C644        C645   1.395       .  A
C644        H657   1.084       .  S
C645        C646   1.416   1_655  A
C645        H658   1.077       .  S
C646        C652   1.429       .  A
C646        C647   1.424       .  A
C647        C649   1.399       .  A
C647        C648   1.405       .  A
C648        H659   1.085       .  S
C649        C650   1.390       .  A
C649        H660   1.084       .  S
C650        C651   1.400       .  A
C650        H661   1.084       .  S
C651        C652   1.422       .  A
C651        C656   1.404       .  A
C652        C653   1.415   1_455  A
C653        C654   1.396   1_655  A
C653        H662   1.077       .  S
C654        C655   1.400       .  A
C654        H663   1.082   1_455  S
C655        C656   1.401       .  A
C656        H664   1.084       .  S
C665        C666   1.395       .  A
C665        C670   1.400   1_455  A
C666        C667   1.392       .  A
C666        H679   1.084       .  S
C667        C668   1.415       .  A
C667        H680   1.076       .  S
C668        C674   1.429       .  A
C668        C669   1.424   1_455  A
C669        C671   1.401       .  A
C669        C670   1.410       .  A
C670        H681   1.084       .  S
C671        C672   1.394       .  A
C671        H682   1.084       .  S
C672        C673   1.401       .  A
C672        H683   1.084       .  S
C673        C674   1.422   1_655  A
C673        C678   1.411   1_655  A
C674        C675   1.412       .  A
C675        C676   1.392       .  A
C675        H684   1.077       .  S
C676        C677   1.401       .  A
C676        H685   1.083       .  S
C677        C678   1.405       .  A
C678        H686   1.083   1_455  S
C687        C688   1.402       .  A
C687        C692   1.400   1_565  A
C688        C689   1.399       .  A
C688        H701   1.083       .  S
C689        C690   1.414   1_565  A
C689        H702   1.078       .  S
C690        C696   1.431       .  A
C690        C691   1.424       .  A
C691        C693   1.399       .  A
C691        C692   1.406       .  A
C692        H703   1.084       .  S
C693        C694   1.389       .  A
C693        H704   1.084       .  S
C694        C695   1.399       .  A
C694        H705   1.084       .  S
C695        C696   1.419       .  A
C695        C700   1.401       .  A
C696        C697   1.417   1_545  A
C697        C698   1.402   1_565  A
C697        H706   1.078       .  S
C698        C699   1.401       .  A
C698        H707   1.081   1_545  S
C699        C700   1.404       .  A
C700        H708   1.083       .  S
C709        C710   1.402       .  A
C709        C714   1.404       .  A
C710        C711   1.400       .  A
C710        H723   1.082   1_554  S
C711        C712   1.416       .  A
C711        H724   1.077   1_554  S
C712        C718   1.432       .  A
C712        C713   1.421       .  A
C713        C715   1.400       .  A
C713        C714   1.404       .  A
C714        H725   1.084       .  S
C715        C716   1.389       .  A
C715        H726   1.084       .  S
C716        C717   1.399       .  A
C716        H727   1.084       .  S
C717        C718   1.424       .  A
C717        C722   1.405       .  A
C718        C719   1.416   1_554  A
C719        C720   1.399       .  A
C719        H728   1.077       .  S
C720        C721   1.399   1_556  A
C720        H729   1.084       .  S
C721        C722   1.399       .  A
C722        H730   1.085       .  S
C731        C732   1.400       .  A
C731        C736   1.406       .  A
C732        C733   1.389       .  A
C732        H745   1.080   1_545  S
C733        C734   1.410       .  A
C733        H746   1.078       .  S
C734        C740   1.427       .  A
C734        C735   1.421       .  A
C735        C737   1.402       .  A
C735        C736   1.412       .  A
C736        H747   1.083       .  S
C737        C738   1.396       .  A
C737        H748   1.084       .  S
C738        C739   1.402       .  A
C738        H749   1.084       .  S
C739        C740   1.421       .  A
C739        C744   1.413       .  A
C740        C741   1.411       .  A
C741        C742   1.390       .  A
C741        H750   1.078       .  S
C742        C743   1.402       .  A
C742        H751   1.083       .  S
C743        C744   1.405       .  A
C744        H752   1.084       .  S
C753        C754   1.404       .  A
C753        C758   1.405       .  A
C754        C755   1.395       .  A
C754        H767   1.083       .  S
C755        C756   1.412       .  A
C755        H768   1.076       .  S
C756        C762   1.433       .  A
C756        C757   1.424       .  A
C757        C759   1.401   1_554  A
C757        C758   1.414       .  A
C758        H769   1.082   1_554  S
C759        C760   1.394       .  A
C759        H770   1.084       .  S
C760        C761   1.402   1_556  A
C760        H771   1.084       .  S
C761        C762   1.421       .  A
C761        C766   1.410       .  A
C762        C763   1.418       .  A
C763        C764   1.400       .  A
C763        H772   1.076       .  S
C764        C765   1.398       .  A
C764        H773   1.084       .  S
C765        C766   1.405       .  A
C766        H774   1.084   1_554  S
C775        C776   1.400   1_565  A
C775        C780   1.408       .  A
C776        C777   1.399       .  A
C776        H789   1.083       .  S
C777        C778   1.417   1_545  A
C777        H790   1.077       .  S
C778        C784   1.432       .  A
C778        C779   1.420       .  A
C779        C781   1.402       .  A
C779        C780   1.411       .  A
C780        H791   1.085       .  S
C781        C782   1.395       .  A
C781        H792   1.084       .  S
C782        C783   1.401       .  A
C782        H793   1.083       .  S
C783        C784   1.425       .  A
C783        C788   1.415       .  A
C784        C785   1.411   1_565  A
C785        C786   1.393       .  A
C785        H794   1.077       .  S
C786        C787   1.401       .  A
C786        H795   1.084       .  S
C787        C788   1.403   1_545  A
C788        H796   1.084       .  S
C797        C798   1.404       .  A
C797        C802   1.406       .  A
C798        C799   1.403       .  A
C798        H811   1.082       .  S
C799        C800   1.416       .  A
C799        H812   1.078   1_545  S
C800        C806   1.434       .  A
C800        C801   1.421       .  A
C801        C803   1.400       .  A
C801        C802   1.405       .  A
C802        H813   1.083       .  S
C803        C804   1.390       .  A
C803        H814   1.084       .  S
C804        C805   1.399       .  A
C804        H815   1.084       .  S
C805        C806   1.423       .  A
C805        C810   1.406       .  A
C806        C807   1.417   1_545  A
C807        C808   1.402       .  A
C807        H816   1.078       .  S
C808        C809   1.400   1_565  A
C808        H817   1.083       .  S
C809        C810   1.399       .  A
C810        H818   1.085       .  S
C819        C820   1.400       .  A
C819        C824   1.403   1_554  A
C820        C821   1.401       .  A
C820        H833   1.084       .  S
C821        C822   1.417       .  A
C821        H834   1.078       .  S
C822        C828   1.434       .  A
C822        C823   1.421   1_554  A
C823        C825   1.401       .  A
C823        C824   1.409       .  A
C824        H835   1.085       .  S
C825        C826   1.394       .  A
C825        H836   1.084       .  S
C826        C827   1.400       .  A
C826        H837   1.084       .  S
C827        C828   1.424   1_556  A
C827        C832   1.414       .  A
C828        C829   1.411       .  A
C829        C830   1.395       .  A
C829        H838   1.078       .  S
C830        C831   1.406       .  A
C830        H839   1.082       .  S
C831        C832   1.404   1_554  A
C832        H840   1.082       .  S
