geometry optimzed in LAMMPS
_audit_creation_date              2020-11-30 
_audit_creation_method            'lammps2cif' 
_symmetry_space_group_name_H-M    'P1' 
_symmetry_Int_Tables_number       1 
_symmetry_cell_setting            triclinic 
loop_ 
_symmetry_equiv_pos_as_xyz 
  x,y,z 
_cell_length_a                    56.35778335 
_cell_length_b                    56.27804282697668 
_cell_length_c                    56.90984071248978 
_cell_angle_alpha                 89.98137202405711 
_cell_angle_beta                  90.26293482005377 
_cell_angle_gamma                 90.22533637823453 
loop_ 
_atom_site_label 
_atom_site_type_symbol 
_atom_site_fract_x 
_atom_site_fract_y 
_atom_site_fract_z 
_atom_site_charge 
N1          N  0.53333370  0.66222932  0.99245622    -0.26900
N2          N  0.52181239  0.68110424  0.00016601    -0.34800
C3          C  0.53724298  0.69932314  0.00249078     0.01400
C4          C  0.55951171  0.69152620  0.99587520     0.07500
C5          C  0.55628220  0.66799226  0.98949883    -0.05600
H6          H  0.53265442  0.71679821  0.00888298     0.08100
H7          H  0.56975114  0.65579319  0.98367454     0.09300
Cu8        Cu  0.48552220  0.68137445  0.00654240     0.44200
Cu9        Cu  0.51837386  0.62866389  0.98794453     0.42000
Cu10       Cu  0.45581467  0.62491369  0.99531832     0.43900
N11         N  0.44889558  0.67735951  0.00463766    -0.34300
N12         N  0.43838889  0.65712490  0.99890875    -0.28600
C13         C  0.41515670  0.66110803  0.99548496    -0.04700
C14         C  0.41053895  0.68490049  0.99966806     0.07600
C15         C  0.43242844  0.69459813  0.00564875     0.01400
H16         H  0.40257916  0.64767514  0.98962870     0.09000
H17         H  0.43630281  0.71296265  0.00969282     0.08100
N18         N  0.47706034  0.59507556  0.99202549    -0.35700
N19         N  0.50017346  0.59643428  0.98852905    -0.27900
C20         C  0.50898291  0.57428769  0.98686266    -0.03200
C21         C  0.49051625  0.55816321  0.98966853     0.05400
C22         C  0.47054674  0.57205999  0.99296395     0.03500
H23         H  0.52745976  0.57022285  0.98402178     0.08600
H24         H  0.45265198  0.56590494  0.99599550     0.07500
N25         N  0.56054069  0.28218658  0.97511455    -0.26900
N26         N  0.55046116  0.26243000  0.96730414    -0.34800
C27         C  0.56682961  0.24521898  0.96586714     0.01400
C28         C  0.58831595  0.25451525  0.97307276     0.07500
C29         C  0.58379344  0.27801509  0.97875278    -0.05600
H30         H  0.56339517  0.22735852  0.95965432     0.08100
H31         H  0.59649190  0.29111428  0.98480397     0.09300
Cu32       Cu  0.51509016  0.25923427  0.95864896     0.44200
Cu33       Cu  0.54193658  0.31384759  0.97994027     0.42000
Cu34       Cu  0.47779009  0.30896189  0.97142637     0.43900
N35         N  0.47882273  0.25832797  0.95427782    -0.34300
N36         N  0.46486113  0.27618458  0.95999670    -0.28600
C37         C  0.44215943  0.26940262  0.95678515    -0.04700
C38         C  0.44188899  0.24622031  0.94844998     0.07600
C39         C  0.46551294  0.23985958  0.94696861     0.01400
H40         H  0.42698281  0.28038885  0.96049278     0.09000
H41         H  0.47255023  0.22296315  0.94135824     0.08100
N42         N  0.49536466  0.34065060  0.97927034    -0.35700
N43         N  0.51861647  0.34254210  0.98216251    -0.27900
C44         C  0.52423134  0.36560891  0.98548256    -0.03200
C45         C  0.50354521  0.37882886  0.98465101     0.05400
C46         C  0.48561751  0.36241803  0.98070392     0.03500
H47         H  0.54206758  0.37233507  0.98775916     0.08600
H48         H  0.46700512  0.36611591  0.97828826     0.07500
N49         N  0.67766939  0.94989487  0.40410444    -0.26900
N50         N  0.69622688  0.95821542  0.41583516    -0.34800
C51         C  0.71333161  0.96406009  0.40040688     0.01400
C52         C  0.70530298  0.95891296  0.37788778     0.07500
C53         C  0.68265210  0.94983377  0.38102770    -0.05600
H54         H  0.73032599  0.97172812  0.40523982     0.08100
H55         H  0.67045140  0.94389227  0.36742573     0.09300
Cu56       Cu  0.69758300  0.96057339  0.45238066     0.44200
Cu57       Cu  0.64548233  0.94124640  0.41954578     0.42000
Cu58       Cu  0.64288342  0.94536765  0.48260759     0.43900
N59         N  0.69473269  0.95836279  0.48884298    -0.34300
N60         N  0.67498812  0.95202546  0.49968785    -0.28600
C61         C  0.67909039  0.95147503  0.52298744    -0.04700
C62         C  0.70246517  0.95804945  0.52717338     0.07600
C63         C  0.71182382  0.96228311  0.50504886     0.01400
H64         H  0.66597638  0.94673047  0.53596106     0.09000
H65         H  0.72975023  0.96790953  0.50100889     0.08100
N66         N  0.61293293  0.94126803  0.46141289    -0.35700
N67         N  0.61403951  0.93931594  0.43829639    -0.27900
C68         C  0.59188170  0.93810356  0.42948242    -0.03200
C69         C  0.57599584  0.93948791  0.44790153     0.05400
C70         C  0.58997364  0.94144752  0.46791844     0.03500
H71         H  0.58762609  0.93704462  0.41096380     0.08600
H72         H  0.58390785  0.94359027  0.48575656     0.07500
N73         N  0.29696983  0.95707603  0.38931836    -0.26900
N74         N  0.27719018  0.94822942  0.39823320    -0.34800
C75         C  0.26076283  0.94645972  0.38107680     0.01400
C76         C  0.27061881  0.95476777  0.36039240     0.07500
C77         C  0.29349629  0.96157757  0.36639353    -0.05600
H78         H  0.24323572  0.93892235  0.38336628     0.08100
H79         H  0.30699007  0.96831546  0.35471036     0.09300
Cu80       Cu  0.27350819  0.93842380  0.43310624     0.44200
Cu81       Cu  0.32918158  0.95884512  0.40708584     0.42000
Cu82       Cu  0.32813657  0.93864578  0.46670598     0.43900
N83         N  0.27480980  0.93320715  0.46910423    -0.34300
N84         N  0.29472053  0.93426217  0.48142272    -0.28600
C85         C  0.28960182  0.93146445  0.50428702    -0.04700
C86         C  0.26533745  0.92810143  0.50651694     0.07600
C87         C  0.25653140  0.92931309  0.48378548     0.01400
H88         H  0.30261615  0.93173396  0.51828311     0.09000
H89         H  0.23822506  0.92741409  0.47826034     0.08100
N90         N  0.35933229  0.94369700  0.44800956    -0.35700
N91         N  0.35980282  0.95192396  0.42626948    -0.27900
C92         C  0.38252230  0.95359749  0.41919093    -0.03200
C93         C  0.39705979  0.94593099  0.43735365     0.05400
C94         C  0.38170438  0.93972802  0.45530395     0.03500
H95         H  0.38803637  0.95994658  0.40213502     0.08600
H96         H  0.38646422  0.93295878  0.47245053     0.07500
O97         O  0.74876416  0.92801322  0.95890611    -0.72600
O98         O  0.75205384  0.99882998  0.95682004    -0.73500
O99         O  0.74953395  0.96227976  0.92223646    -0.62200
O100        O  0.75225768  0.96473186  0.99314301    -0.70600
O101        O  0.79161433  0.96394504  0.99160219    -0.70100
O102        O  0.78872020  0.95912182  0.92157920    -0.61400
O103        O  0.79121593  0.99759813  0.95428284    -0.73900
O104        O  0.78794429  0.92568178  0.95942839    -0.72700
Cu105      Cu  0.74930369  0.96348726  0.95777018     1.04600
Cu106      Cu  0.79125567  0.96150804  0.95660978     1.04300
C107        C  0.76757690  0.91554226  0.96018998     0.93600
C108        C  0.77195115  0.00957423  0.95529353     0.92800
C109        C  0.76888610  0.96024412  0.91073791     0.84900
C110        C  0.77249679  0.96505419  0.00342838     0.91200
N111        N  0.77756406  0.98047078  0.19752549    -0.03100
C112        C  0.76361106  0.98831704  0.21563113    -0.00500
C113        C  0.74431506  0.00068085  0.20698008    -0.23400
C114        C  0.74625097  0.00097772  0.18309148    -0.23600
C115        C  0.76637357  0.98828829  0.17763124    -0.00600
H116        H  0.72977014  0.00789906  0.21703976     0.13200
H117        H  0.73358181  0.00847614  0.17083930     0.13200
N118        N  0.77197522  0.18901201  0.95945648    -0.03100
C119        C  0.75448660  0.20565774  0.96145063    -0.00500
C120        C  0.76380653  0.22827881  0.95900390    -0.23400
C121        C  0.78770890  0.22591117  0.95634423    -0.23600
C122        C  0.79238751  0.20185862  0.95626880    -0.00600
H123        H  0.75423756  0.24488172  0.96010043     0.13200
H124        H  0.80043002  0.24027777  0.95480411     0.13200
O125        O  0.95579475  0.96466623  0.72567825    -0.72600
O126        O  0.02770734  0.96213018  0.72171561    -0.73500
O127        O  0.99275330  0.99902078  0.72301858    -0.62200
O128        O  0.99106265  0.92819182  0.72619574    -0.70600
O129        O  0.99065042  0.92606996  0.68732850    -0.70100
O130        O  0.98825320  0.99834604  0.68434040    -0.61400
O131        O  0.02464953  0.96329493  0.68317868    -0.73900
O132        O  0.95402475  0.96063706  0.68729174    -0.72700
Cu133      Cu  0.99189175  0.96363767  0.72548004     1.04600
Cu134      Cu  0.98928748  0.96208649  0.68418475     1.04300
C135        C  0.94337483  0.96251882  0.70688628     0.93600
C136        C  0.03761821  0.96201985  0.70150433     0.92800
C137        C  0.99044307  0.01002988  0.70356523     0.84900
C138        C  0.99123371  0.91582709  0.70744872     0.91200
N139        N  0.97881243  0.20588790  0.72910723    -0.03100
C140        C  0.97173056  0.22561083  0.71668956    -0.00500
C141        C  0.95833861  0.21888300  0.69738254    -0.23400
C142        C  0.95670573  0.19469207  0.69773707    -0.23600
C143        C  0.96959782  0.18701489  0.71693452    -0.00600
H144        H  0.95156204  0.23037330  0.68367100     0.13200
H145        H  0.94864106  0.18367253  0.68428801     0.13200
N146        N  0.21177438  0.92216822  0.69266003    -0.03100
C147        C  0.22682556  0.91675586  0.67470644    -0.00500
C148        C  0.24834417  0.90899939  0.68353232    -0.23400
C149        C  0.24695129  0.91008593  0.70750748    -0.23600
C150        C  0.22443205  0.91796184  0.71276995    -0.00600
H151        H  0.26382812  0.90409824  0.67347471     0.13200
H152        H  0.26104689  0.90603477  0.71983303     0.13200
O153        O  0.23052031  0.91921551  0.93610021    -0.72600
O154        O  0.24201405  0.98912169  0.92773812    -0.73500
O155        O  0.23767102  0.95790533  0.96641403    -0.62200
O156        O  0.23370618  0.94950064  0.89638208    -0.70600
O157        O  0.19529685  0.95652974  0.89754280    -0.70100
O158        O  0.19909174  0.96508903  0.96716860    -0.61400
O159        O  0.20341858  0.99591115  0.92818506    -0.73900
O160        O  0.19164169  0.92502737  0.93733193    -0.72700
Cu161      Cu  0.23728841  0.95375907  0.93145056     1.04600
Cu162      Cu  0.19599635  0.96083548  0.93246558     1.04300
C163        C  0.20955209  0.91113115  0.93893353     0.93600
C164        C  0.22475661  0.00378357  0.92750161     0.92800
C165        C  0.21887787  0.96279635  0.97788155     0.84900
C166        C  0.21376296  0.95143591  0.88574378     0.91200
O167        O  0.96006454  0.95069749  0.15573684    -0.72600
O168        O  0.03140047  0.95682164  0.15160520    -0.73500
O169        O  0.99826606  0.91873230  0.15303150    -0.62200
O170        O  0.99259416  0.98932862  0.15359344    -0.70600
O171        O  0.99450049  0.98959536  0.19255179    -0.70100
O172        O  0.00101728  0.91852085  0.19195131    -0.61400
O173        O  0.03324590  0.95794675  0.19017902    -0.73900
O174        O  0.96271227  0.95079090  0.19458794    -0.72700
Cu175      Cu  0.99553256  0.95391550  0.15213469     1.04600
Cu176      Cu  0.99801743  0.95415770  0.19365756     1.04300
C177        C  0.95014494  0.94986974  0.17589745     0.93600
C178        C  0.04381276  0.95848447  0.17040605     0.92800
C179        C  0.00015223  0.90743515  0.17235409     0.84900
C180        C  0.99241071  0.00062341  0.17303924     0.91200
O181        O  0.98045434  0.15991002  0.94806209    -0.72600
O182        O  0.05134216  0.16656972  0.94725393    -0.73500
O183        O  0.01577508  0.16332168  0.98322315    -0.62200
O184        O  0.01586557  0.16407134  0.91185000    -0.70600
O185        O  0.01114912  0.20300135  0.91309269    -0.70100
O186        O  0.01324958  0.20258291  0.98295777    -0.61400
O187        O  0.04824789  0.20573149  0.94619416    -0.73900
O188        O  0.97733556  0.19913767  0.94905008    -0.72700
Cu189      Cu  0.01605566  0.16205219  0.94759466     1.04600
Cu190      Cu  0.01248188  0.20390960  0.94788547     1.04300
C191        C  0.96769333  0.17855359  0.94930549     0.93600
C192        C  0.06105270  0.18703323  0.94558332     0.92800
C193        C  0.01355157  0.18300806  0.99426617     0.84900
C194        C  0.01351987  0.18399225  0.90120587     0.91200
N195        N  0.98559452  0.19688900  0.16869069    -0.03100
C196        C  0.98453379  0.21709413  0.18201153    -0.00500
C197        C  0.98257369  0.21136376  0.20555738    -0.23400
C198        C  0.98149706  0.18722024  0.20703862    -0.23600
C199        C  0.98386717  0.17860858  0.18448387    -0.00600
H200        H  0.98130531  0.22363646  0.22014005     0.13200
H201        H  0.97952588  0.17693851  0.22299268     0.13200
N202        N  0.22312693  0.97490429  0.17185391    -0.03100
C203        C  0.23788998  0.97677272  0.19099231    -0.00500
C204        C  0.26105501  0.98038002  0.18387055    -0.23400
C205        C  0.26086206  0.98139270  0.15993307    -0.23600
C206        C  0.23770304  0.97767058  0.15290454    -0.00600
H207        H  0.27657970  0.98193334  0.19504540     0.13200
H208        H  0.27614672  0.98375900  0.14871072     0.13200
N209        N  0.25802090  0.18072910  0.93720763    -0.03100
C210        C  0.27776324  0.19490094  0.93952676    -0.00500
C211        C  0.27141156  0.21859963  0.94011575    -0.23400
C212        C  0.24733489  0.21948212  0.93900538    -0.23600
C213        C  0.23941131  0.19637757  0.93682870    -0.00600
H214        H  0.28320868  0.23372215  0.94197243     0.13200
H215        H  0.23661464  0.23538199  0.93971072     0.13200
O216        O  0.94996477  0.70948733  0.93863767    -0.72600
O217        O  0.02113224  0.71181471  0.93485589    -0.73500
O218        O  0.98737099  0.71201638  0.97104552    -0.62200
O219        O  0.98432955  0.70815404  0.90089077    -0.70600
O220        O  0.98253248  0.74728378  0.89848293    -0.70100
O221        O  0.98527737  0.75112372  0.96972225    -0.61400
O222        O  0.01938557  0.75091499  0.93214810    -0.73900
O223        O  0.94919810  0.74872306  0.93562376    -0.72700
Cu224      Cu  0.98570406  0.70899698  0.93625633     1.04600
Cu225      Cu  0.98409900  0.75085459  0.93383333     1.04300
C226        C  0.93854070  0.72909052  0.93918098     0.93600
C227        C  0.03157557  0.73193095  0.93315539     0.92800
C228        C  0.98608463  0.73186437  0.98172161     0.84900
C229        C  0.98343009  0.72698608  0.88839439     0.91200
N230        N  0.02196070  0.71403198  0.15374641    -0.03100
C231        C  0.03090167  0.69475594  0.16560195    -0.00500
C232        C  0.04476130  0.70218687  0.18434709    -0.23400
C233        C  0.04471817  0.72645250  0.18422533    -0.23600
C234        C  0.03050231  0.73329301  0.16565522    -0.00600
H235        H  0.05286405  0.69104067  0.19762533     0.13200
H236        H  0.05266100  0.73792276  0.19736891     0.13200
N237        N  0.22575187  0.73471289  0.95707513    -0.03100
C238        C  0.24542493  0.72067877  0.95947214    -0.00500
C239        C  0.23926024  0.69692168  0.95777476    -0.23400
C240        C  0.21547648  0.69591946  0.95346079    -0.23600
C241        C  0.20751075  0.71904184  0.95338218    -0.00600
H242        H  0.25106242  0.68184407  0.95911393     0.13200
H243        H  0.20499134  0.67998268  0.95080433     0.13200
N244        N  0.99930131  0.71817984  0.71184335    -0.03100
C245        C  0.00231252  0.69982220  0.69629511    -0.00500
C246        C  0.00673098  0.70865765  0.67405455    -0.23400
C247        C  0.00750939  0.73279335  0.67577862    -0.23600
C248        C  0.00234413  0.73841492  0.69878803    -0.00600
H249        H  0.00954083  0.69846739  0.65818509     0.13200
H250        H  0.01064650  0.74509472  0.66148946     0.13200
N251        N  0.76376252  0.95728423  0.71405455    -0.03100
C252        C  0.74711646  0.95645126  0.69639011    -0.00500
C253        C  0.72456505  0.95577480  0.70580091    -0.23400
C254        C  0.72702647  0.95531693  0.72964569    -0.23600
C255        C  0.75100805  0.95678131  0.73453361    -0.00600
H256        H  0.70795328  0.95511344  0.69619077     0.13200
H257        H  0.71270756  0.95460032  0.74224307     0.13200
N258        N  0.74752725  0.73825403  0.98033560    -0.03100
C259        C  0.72776875  0.72501184  0.98508064    -0.00500
C260        C  0.73384795  0.70170613  0.98975476    -0.23400
C261        C  0.75787622  0.70008922  0.98729777    -0.23600
C262        C  0.76595782  0.72258888  0.98182712    -0.00600
H263        H  0.72182776  0.68716897  0.99356040     0.13200
H264        H  0.76834540  0.68408667  0.98891623     0.13200
N265        N  0.02545902  0.40985179  0.62664342    -0.26900
N266        N  0.01440188  0.42137249  0.64357478    -0.34800
C267        C  0.00845029  0.40604337  0.66064601     0.01400
C268        C  0.01619078  0.38367122  0.65440036     0.07500
C269        C  0.02699697  0.38675399  0.63270574    -0.05600
H270        H  0.99853227  0.41075718  0.67621870     0.08100
H271        H  0.03473552  0.37305793  0.62177766     0.09300
Cu272      Cu  0.00713888  0.45724210  0.64283347     0.44200
Cu273      Cu  0.03500327  0.42619608  0.59513159     0.42000
Cu274      Cu  0.02343408  0.49036834  0.59155324     0.43900
N275        N  0.00440152  0.49370832  0.64085490    -0.34300
N276        N  0.01123823  0.50622001  0.62242435    -0.28600
C277        C  0.00894793  0.52948015  0.62748701    -0.04700
C278        C  0.00017602  0.53161683  0.65016577     0.07600
C279        C  0.99738146  0.50851630  0.65797120     0.01400
H280        H  0.01376982  0.54377922  0.61577364     0.09000
H281        H  0.99121716  0.50282459  0.67510272     0.08100
N282        N  0.03164963  0.46897580  0.56269654    -0.35700
N283        N  0.03608270  0.44592269  0.56409063    -0.27900
C284        C  0.03729768  0.43692092  0.54220859    -0.03200
C285        C  0.03335513  0.45506271  0.52624151     0.05400
C286        C  0.02992525  0.47514273  0.53985781     0.03500
H287        H  0.03884196  0.41821094  0.53824358     0.08600
H288        H  0.02456942  0.49244538  0.53368143     0.07500
N289        N  0.99024533  0.40930350  0.25120169    -0.26900
N290        N  0.99784462  0.42125151  0.23268571    -0.34800
C291        C  0.00038733  0.40622433  0.21451260     0.01400
C292        C  0.99407975  0.38371360  0.22195430     0.07500
C293        C  0.98771954  0.38630345  0.24528779    -0.05600
H294        H  0.00655763  0.41129323  0.19722886     0.08100
H295        H  0.98203077  0.37243563  0.25715950     0.09300
Cu296      Cu  0.00357555  0.45749645  0.23275471     0.44200
Cu297      Cu  0.98519890  0.42462674  0.28399840     0.42000
Cu298      Cu  0.99030353  0.48863448  0.28687406     0.43900
N299        N  0.00125698  0.49399654  0.23520451    -0.34300
N300        N  0.99458734  0.50537129  0.25436817    -0.28600
C301        C  0.99316174  0.52871262  0.24941573    -0.04700
C302        C  0.99981934  0.53226410  0.22618602     0.07600
C303        C  0.00484970  0.50976187  0.21783709     0.01400
H304        H  0.98817016  0.54221505  0.26201687     0.09000
H305        H  0.01103278  0.50513738  0.20044384     0.08100
N306        N  0.99017139  0.46668832  0.31653130    -0.35700
N307        N  0.98738385  0.44338222  0.31536262    -0.27900
C308        C  0.98903622  0.43416185  0.33712963    -0.03200
C309        C  0.99349615  0.45243690  0.35287028     0.05400
C310        C  0.99405408  0.47283817  0.33912326     0.03500
H311        H  0.98787176  0.41541847  0.34108529     0.08600
H312        H  0.99777646  0.49069780  0.34501011     0.07500
C313        C  0.02760289  0.45244695  0.50089594     0.01700
C314        C  0.00675788  0.44032247  0.49386911     0.04500
C315        C  0.00102646  0.43807459  0.46983794    -0.11500
C316        C  0.01562542  0.44865462  0.45267921     0.23800
C317        C  0.03650697  0.46070256  0.45968580    -0.12100
C318        C  0.04253845  0.46247488  0.48370212     0.05200
C319        C  0.00860126  0.44815571  0.42736979     0.27700
C320        C  0.02003615  0.43272408  0.41160642    -0.12800
C321        C  0.01550920  0.43435296  0.38726046     0.05800
C322        C  0.99829182  0.45045322  0.37859296    -0.08700
C323        C  0.98580476  0.46485041  0.39466921     0.06600
C324        C  0.99131656  0.46406319  0.41884798    -0.13100
Br325      Br  0.05665279  0.47512242  0.43628425    -0.05200
Br326      Br  0.98514762  0.42807231  0.51718943     0.00400
Br327      Br  0.03458166  0.41583071  0.36599107     0.00900
Br328      Br  0.97541101  0.48509791  0.44039713    -0.03500
Br329      Br  0.07138251  0.47848876  0.49305021     0.01000
Br330      Br  0.97308288  0.42057618  0.46034900    -0.02800
Br331      Br  0.04199278  0.40936051  0.42355971    -0.03700
Br332      Br  0.96035923  0.48504838  0.38392613     0.00300
C333        C  0.00240974  0.67356835  0.70056666     0.01700
C334        C  0.02169980  0.66026015  0.69149932     0.04500
C335        C  0.01936248  0.63572356  0.68752933    -0.11500
C336        C  0.99827668  0.62383457  0.69363687     0.23800
C337        C  0.98017984  0.63630044  0.70523827    -0.12100
C338        C  0.98180335  0.66120961  0.70795370     0.05200
C339        C  0.99455414  0.59896865  0.68544416     0.27700
C340        C  0.98162029  0.59469505  0.66457561    -0.12800
C341        C  0.98229553  0.57217321  0.65384109     0.05800
C342        C  0.99639754  0.55393955  0.66356613    -0.08700
C343        C  0.00783250  0.55773022  0.68546921     0.06600
C344        C  0.00658166  0.58011677  0.69648708    -0.13100
Br345      Br  0.95259284  0.61915725  0.71606688    -0.05200
Br346      Br  0.05118348  0.67563504  0.68268122     0.00400
Br347      Br  0.96350179  0.56627416  0.62597233     0.00900
Br348      Br  0.02241905  0.58560976  0.72614556    -0.03500
Br349      Br  0.95427611  0.67794274  0.71859090     0.01000
Br350      Br  0.04445914  0.61865397  0.67183513    -0.02800
Br351      Br  0.96392180  0.62009063  0.64999125    -0.03700
Br352      Br  0.02705056  0.53326986  0.69967965     0.00300
C353        C  0.00287009  0.55520445  0.21347736     0.01700
C354        C  0.99381378  0.55816974  0.19036727     0.04500
C355        C  0.99772042  0.57960184  0.17809848    -0.11500
C356        C  0.00956094  0.59860523  0.18917701     0.23800
C357        C  0.01799739  0.59597753  0.21238596    -0.12100
C358        C  0.01543746  0.57416720  0.22418563     0.05200
C359        C  0.01323663  0.62160664  0.17681155     0.27700
C360        C  0.03592733  0.62765114  0.16856311    -0.12800
C361        C  0.04134830  0.65139974  0.16280231     0.05800
C362        C  0.02357816  0.66924590  0.16381540    -0.08700
C363        C  0.00036362  0.66246477  0.17063833     0.06600
C364        C  0.99521727  0.63877261  0.17688964    -0.13100
Br365      Br  0.03304808  0.62252364  0.22813616    -0.05200
Br366      Br  0.97494194  0.53361963  0.17560072     0.00400
Br367      Br  0.07423719  0.65940874  0.15756867     0.00900
Br368      Br  0.96404191  0.63019625  0.18822936    -0.03500
Br369      Br  0.03111596  0.57013383  0.25419203     0.01000
Br370      Br  0.98695447  0.58314286  0.14604832    -0.02800
Br371      Br  0.06019143  0.60349687  0.16748949    -0.03700
Br372      Br  0.97659071  0.68586776  0.17674764     0.00300
C373        C  0.05790771  0.73327723  0.93281151     0.01700
C374        C  0.07125273  0.71446611  0.92296561     0.04500
C375        C  0.09606885  0.71432694  0.92526893    -0.11500
C376        C  0.10780608  0.73341809  0.93626394     0.23800
C377        C  0.09497941  0.75312084  0.94421133    -0.12100
C378        C  0.07005996  0.75295322  0.94303285     0.05200
C379        C  0.13342666  0.73167474  0.94134610     0.27700
C380        C  0.14086628  0.71975933  0.96177661    -0.12800
C381        C  0.16507256  0.71560981  0.96567561     0.05800
C382        C  0.18211945  0.72473871  0.94979151    -0.08700
C383        C  0.17450077  0.73654338  0.92922470     0.06600
C384        C  0.15016928  0.74019925  0.92514263    -0.13100
Br385      Br  0.11187782  0.77996283  0.95742479    -0.05200
Br386      Br  0.05619351  0.68910536  0.90538030     0.00400
Br387      Br  0.17436930  0.69640733  0.99240361     0.00900
Br388      Br  0.13949694  0.75598343  0.89692925    -0.03500
Br389      Br  0.05338454  0.77922196  0.95723593     0.01000
Br390      Br  0.11420964  0.68761295  0.91400522    -0.02800
Br391      Br  0.11761812  0.70866860  0.98416454    -0.03700
Br392      Br  0.19675023  0.74461720  0.90493387     0.00300
C393        C  0.98560736  0.73178837  0.00807853     0.01700
C394        C  0.97655365  0.71155223  0.02014244     0.04500
C395        C  0.98035975  0.70885083  0.04445582    -0.11500
C396        C  0.99195388  0.72677352  0.05729479     0.23800
C397        C  0.99831141  0.74817487  0.04609166    -0.12100
C398        C  0.99526215  0.75075807  0.02156444     0.05200
C399        C  0.99875610  0.72246278  0.08223711     0.27700
C400        C  0.98359438  0.72898925  0.10063347    -0.12800
C401        C  0.99055172  0.72548532  0.12426133     0.05800
C402        C  0.01283473  0.71492912  0.12975429    -0.08700
C403        C  0.02798660  0.70881722  0.11088704     0.06600
C404        C  0.02081188  0.71214835  0.08739755    -0.13100
Br405      Br  0.01189696  0.77364008  0.06455910    -0.05200
Br406      Br  0.95750303  0.68779448  0.00417002     0.00400
Br407      Br  0.96937749  0.73664323  0.14817758     0.00900
Br408      Br  0.04168462  0.70354553  0.06193334    -0.03500
Br409      Br  0.00505897  0.78021988  0.00712773     0.01000
Br410      Br  0.97033334  0.68020259  0.06035173    -0.02800
Br411      Br  0.95341644  0.74335393  0.09308880    -0.03700
Br412      Br  0.06029399  0.69972529  0.11662244     0.00300
C413        C  0.91316633  0.72962646  0.94560043     0.01700
C414        C  0.89712100  0.71244040  0.93684710     0.04500
C415        C  0.87333550  0.71266322  0.94415007    -0.11500
C416        C  0.86513440  0.73094496  0.95894169     0.23800
C417        C  0.88085363  0.74851984  0.96713376    -0.12100
C418        C  0.90499146  0.74732529  0.96135601     0.05200
C419        C  0.83991451  0.73150055  0.96589342     0.27700
C420        C  0.82262034  0.73820722  0.94934981    -0.12800
C421        C  0.79849381  0.73497753  0.95441306     0.05800
C422        C  0.79137395  0.72752089  0.97699584    -0.08700
C423        C  0.80892090  0.72144416  0.99389557     0.06600
C424        C  0.83310877  0.72333601  0.98824762    -0.13100
Br425      Br  0.86913668  0.77430030  0.98623265    -0.05200
Br426      Br  0.90710283  0.68924610  0.91401053     0.00400
Br427      Br  0.77620992  0.73594278  0.92880140     0.00900
Br428      Br  0.85703889  0.71376848  0.01075160    -0.03500
Br429      Br  0.92670764  0.76897693  0.97693167     0.01000
Br430      Br  0.85190482  0.68775930  0.93408099    -0.02800
Br431      Br  0.83219351  0.75084801  0.91926108    -0.03700
Br432      Br  0.80034637  0.70889478  0.02437988     0.00300
C433        C  0.98405209  0.72527492  0.86212747     0.01700
C434        C  0.99632096  0.74267493  0.84873467     0.04500
C435        C  0.99678697  0.74120974  0.82400845    -0.11500
C436        C  0.98645520  0.72166099  0.81239027     0.23800
C437        C  0.97470563  0.70401716  0.82547769    -0.12100
C438        C  0.97311334  0.70592850  0.85015553     0.05200
C439        C  0.98884402  0.71926343  0.78643409     0.27700
C440        C  0.97150678  0.72876325  0.77131719    -0.12800
C441        C  0.97441522  0.72753833  0.74675725     0.05800
C442        C  0.99496134  0.71701877  0.73698738    -0.08700
C443        C  0.01202916  0.70699100  0.75238505     0.06600
C444        C  0.00890964  0.70807991  0.77692585    -0.13100
Br445      Br  0.96089822  0.67712110  0.80927950    -0.05200
Br446      Br  0.01468288  0.76748784  0.86379928     0.00400
Br447      Br  0.94935931  0.73929606  0.72685966     0.00900
Br448      Br  0.03262184  0.69507145  0.79784142    -0.03500
Br449      Br  0.95524756  0.68203112  0.86692042     0.01000
Br450      Br  0.01175144  0.76598205  0.80574766    -0.02800
Br451      Br  0.94390093  0.74383565  0.78451260    -0.03700
Br452      Br  0.04110725  0.69402045  0.74049767     0.00300
C453        C  0.99490593  0.36135900  0.20835119     0.01700
C454        C  0.00906463  0.34241832  0.21641878     0.04500
C455        C  0.00773052  0.32015495  0.20532287    -0.11500
C456        C  0.99279693  0.31689737  0.18558590     0.23800
C457        C  0.98029300  0.33639589  0.17623666    -0.12100
C458        C  0.98091982  0.35848132  0.18788423     0.05200
C459        C  0.98764875  0.29234647  0.17734559     0.27700
C460        C  0.00501623  0.27911890  0.16543072    -0.12800
C461        C  0.00340428  0.25408973  0.16469782     0.05800
C462        C  0.98344463  0.24240989  0.17439368    -0.08700
C463        C  0.96443198  0.25627539  0.18307398     0.06600
C464        C  0.96683133  0.28100542  0.18514773    -0.13100
Br465      Br  0.96136689  0.33231699  0.14818244    -0.05200
Br466      Br  0.03049473  0.34691745  0.24265442     0.00400
Br467      Br  0.03028071  0.23641700  0.15379564     0.00900
Br468      Br  0.94272891  0.29892611  0.20142046    -0.03500
Br469      Br  0.96088648  0.38396713  0.17697631     0.01000
Br470      Br  0.02534725  0.29373805  0.21818394    -0.02800
Br471      Br  0.03209802  0.29538488  0.15229887    -0.03700
Br472      Br  0.93578157  0.24131072  0.19475683     0.00300
C473        C  0.08721101  0.18875127  0.94219803     0.01700
C474        C  0.09883553  0.17234259  0.92724876     0.04500
C475        C  0.12370109  0.17280131  0.92508980    -0.11500
C476        C  0.13715202  0.18977669  0.93744416     0.23800
C477        C  0.12571384  0.20692423  0.95133446    -0.12100
C478        C  0.10083447  0.20655255  0.95364280     0.05200
C479        C  0.16342431  0.18948571  0.93600272     0.27700
C480        C  0.17674845  0.17773740  0.95340928    -0.12800
C481        C  0.20169386  0.17903624  0.95326710     0.05800
C482        C  0.21356690  0.19109336  0.93495883    -0.08700
C483        C  0.19995754  0.20260082  0.91724939     0.06600
C484        C  0.17502561  0.20177937  0.91786230    -0.13100
Br485      Br  0.14441534  0.23079161  0.96740782    -0.05200
Br486      Br  0.08098983  0.15007151  0.90820794     0.00400
Br487      Br  0.21883304  0.16757984  0.98024429     0.00900
Br488      Br  0.15653338  0.21848027  0.89449563    -0.03500
Br489      Br  0.08603381  0.23029328  0.97303898     0.01000
Br490      Br  0.13965453  0.15017407  0.90518120    -0.02800
Br491      Br  0.16052296  0.16090949  0.97820220    -0.03700
Br492      Br  0.21505207  0.22099275  0.89268362     0.00300
C493        C  0.00991409  0.18345226  0.02016168     0.01700
C494        C  0.02089601  0.20128339  0.03402760     0.04500
C495        C  0.01520902  0.20363852  0.05795443    -0.11500
C496        C  0.99946113  0.18751514  0.06862058     0.23800
C497        C  0.98868040  0.16949339  0.05509622    -0.12100
C498        C  0.99341600  0.16776787  0.03083558     0.05200
C499        C  0.99509294  0.18916301  0.09430695     0.27700
C500        C  0.01152204  0.17924839  0.11010139    -0.12800
C501        C  0.00894954  0.18271651  0.13443145     0.05800
C502        C  0.98894763  0.19483008  0.14344349    -0.08700
C503        C  0.97213882  0.20425319  0.12735343     0.06600
C504        C  0.97551649  0.20183392  0.10292590    -0.13100
Br505      Br  0.96716380  0.14741972  0.06996518    -0.05200
Br506      Br  0.04450250  0.22218386  0.02081871     0.00400
Br507      Br  0.03452742  0.17307625  0.15474247     0.00900
Br508      Br  0.95344335  0.21597489  0.08100341    -0.03500
Br509      Br  0.97559284  0.14513577  0.01223532     0.01000
Br510      Br  0.02863284  0.22931796  0.07628418    -0.02800
Br511      Br  0.03784911  0.16108960  0.09810360    -0.03700
Br512      Br  0.94360933  0.21925941  0.13811141     0.00300
C513        C  0.07046081  0.96122158  0.16955642     0.01700
C514        C  0.08219393  0.96921160  0.14878891     0.04500
C515        C  0.10705364  0.97263336  0.14868290    -0.11500
C516        C  0.12066056  0.96768134  0.16883387     0.23800
C517        C  0.10945895  0.95957767  0.18931520    -0.12100
C518        C  0.08465765  0.95628334  0.18983794     0.05200
C519        C  0.14700082  0.97008181  0.16846204     0.27700
C520        C  0.16096190  0.95139785  0.15986360    -0.12800
C521        C  0.18593363  0.95289138  0.16078823     0.05800
C522        C  0.19734075  0.97283241  0.17128236    -0.08700
C523        C  0.18300041  0.99156995  0.17979194     0.06600
C524        C  0.15805875  0.99036576  0.17794971    -0.13100
Br525      Br  0.12863163  0.95277265  0.21680380    -0.05200
Br526      Br  0.06524822  0.97585392  0.11990506     0.00400
Br527      Br  0.20366666  0.92675882  0.14820247     0.00900
Br528      Br  0.13871027  0.01667030  0.18806185    -0.03500
Br529      Br  0.07143875  0.94384290  0.21870745     0.01000
Br530      Br  0.12289065  0.98443149  0.12092912    -0.02800
Br531      Br  0.14551932  0.92345601  0.14714273    -0.03700
Br532      Br  0.19704094  0.01976488  0.19288053     0.00300
C533        C  0.98524093  0.15265862  0.17970771     0.01700
C534        C  0.96810447  0.14115976  0.16547411     0.04500
C535        C  0.96891862  0.11637319  0.16230538    -0.11500
C536        C  0.98563539  0.10275267  0.17478481     0.23800
C537        C  0.00211474  0.11394258  0.18978113    -0.12100
C538        C  0.00219649  0.13877145  0.19204553     0.05200
C539        C  0.98582603  0.07653678  0.17272950     0.27700
C540        C  0.96999254  0.06265491  0.18611679    -0.12800
C541        C  0.97188103  0.03773059  0.18601299     0.05800
C542        C  0.98992365  0.02669698  0.17284644    -0.08700
C543        C  0.00561238  0.04067664  0.15935111     0.06600
C544        C  0.00329418  0.06550315  0.15898477    -0.13100
Br545      Br  0.02430568  0.09498048  0.20770579    -0.05200
Br546      Br  0.94143921  0.15835254  0.15304834     0.00400
Br547      Br  0.94935330  0.01879962  0.20345415     0.00900
Br548      Br  0.02444909  0.08464066  0.14015057    -0.03500
Br549      Br  0.02579161  0.15328776  0.21240149     0.01000
Br550      Br  0.94686363  0.10084870  0.14123708    -0.02800
Br551      Br  0.94610265  0.07790118  0.20500111    -0.03700
Br552      Br  0.03156744  0.02614725  0.14282824     0.00300
C553        C  0.02156941  0.75788387  0.16371904     0.01700
C554        C  0.00618609  0.76650043  0.18134700     0.04500
C555        C  0.99902173  0.79033082  0.18115021    -0.11500
C556        C  0.00802396  0.80590570  0.16407086     0.23800
C557        C  0.02286387  0.79734787  0.14615599    -0.12100
C558        C  0.02988874  0.77340258  0.14611768     0.05200
C559        C  0.00500050  0.83175929  0.16712394     0.27700
C560        C  0.98548996  0.84356880  0.15709920    -0.12800
C561        C  0.98343035  0.86833190  0.15958836     0.05800
C562        C  0.00117171  0.88130413  0.17173662    -0.08700
C563        C  0.02034853  0.86927971  0.18227299     0.06600
C564        C  0.02209028  0.84450871  0.18018516    -0.13100
Br565      Br  0.03448442  0.81893493  0.12245296    -0.05200
Br566      Br  0.99515084  0.74587094  0.20624285     0.00400
Br567      Br  0.95581429  0.88427716  0.14712588     0.00900
Br568      Br  0.04808205  0.82787157  0.19501675    -0.03500
Br569      Br  0.05300237  0.76292285  0.12366366     0.01000
Br570      Br  0.97752009  0.80203390  0.20474627    -0.02800
Br571      Br  0.96177781  0.82570422  0.13999303    -0.03700
Br572      Br  0.04511891  0.88667957  0.19829179     0.00300
C573        C  0.22968549  0.03001183  0.92745781     0.01700
C574        C  0.21600901  0.04560563  0.94153008     0.04500
C575        C  0.22114172  0.07019925  0.94206746    -0.11500
C576        C  0.24072916  0.07941531  0.92969400     0.23800
C577        C  0.25478173  0.06396844  0.91620253    -0.12100
C578        C  0.24903404  0.03956404  0.91461762     0.05200
C579        C  0.24667301  0.10533305  0.93104569     0.27700
C580        C  0.24014600  0.12074062  0.91266809    -0.12800
C581        C  0.24545749  0.14521965  0.91405669     0.05800
C582        C  0.25637684  0.15498606  0.93438159    -0.08700
C583        C  0.26373394  0.13917790  0.95241197     0.06600
C584        C  0.25899018  0.11454594  0.95063682    -0.13100
Br585      Br  0.28232575  0.07640117  0.90022563    -0.05200
Br586      Br  0.19144757  0.03348761  0.96192958     0.00400
Br587      Br  0.23927677  0.16481537  0.88705794     0.00900
Br588      Br  0.26892179  0.09316031  0.97532415    -0.03500
Br589      Br  0.26750504  0.01975910  0.89399815     0.01000
Br590      Br  0.20145011  0.09150300  0.96000278    -0.02800
Br591      Br  0.22343169  0.10820246  0.88566745    -0.03700
Br592      Br  0.27903284  0.15065646  0.98042303     0.00300
C593        C  0.21996064  0.96574172  0.00372866     0.01700
C594        C  0.23945072  0.97763386  0.01430361     0.04500
C595        C  0.24071940  0.97981257  0.03887133    -0.11500
C596        C  0.22231523  0.97079301  0.05295357     0.23800
C597        C  0.20265673  0.95944160  0.04259573    -0.12100
C598        C  0.20155494  0.95658381  0.01807538     0.05200
C599        C  0.22449448  0.97187825  0.07880832     0.27700
C600        C  0.23716193  0.95402430  0.09062739    -0.12800
C601        C  0.24141309  0.95598197  0.11484182     0.05800
C602        C  0.23142144  0.97498184  0.12774224    -0.08700
C603        C  0.21870695  0.99286449  0.11577283     0.06600
C604        C  0.21525378  0.99128857  0.09131575    -0.13100
Br605      Br  0.17762379  0.94723250  0.06234765    -0.05200
Br606      Br  0.26416330  0.99197939  0.99550539     0.00400
Br607      Br  0.26184890  0.93287103  0.12988135     0.00900
Br608      Br  0.19879840  0.01614995  0.07459583    -0.03500
Br609      Br  0.17549165  0.93853696  0.00481040     0.01000
Br610      Br  0.26792734  0.99479289  0.05349461    -0.02800
Br611      Br  0.24906827  0.92707247  0.07333969    -0.03700
Br612      Br  0.20868302  0.02102407  0.13201015     0.00300
C613        C  0.20677297  0.88562664  0.94518251     0.01700
C614        C  0.21867407  0.87678454  0.96526571     0.04500
C615        C  0.22010823  0.85213790  0.96929767    -0.11500
C616        C  0.20925866  0.83609913  0.95353985     0.23800
C617        C  0.19559499  0.84494165  0.93463678    -0.12100
C618        C  0.19456653  0.86963643  0.93029747     0.05200
C619        C  0.21424494  0.81013961  0.95541767     0.27700
C620        C  0.23150154  0.79987879  0.94082585    -0.12800
C621        C  0.23564376  0.77518608  0.94144320     0.05800
C622        C  0.22371941  0.76054088  0.95791122    -0.08700
C623        C  0.20783168  0.77149259  0.97386465     0.06600
C624        C  0.20234169  0.79584861  0.97187946    -0.13100
Br625      Br  0.17910002  0.82295449  0.91423761    -0.05200
Br626      Br  0.23317865  0.89849873  0.98738345     0.00400
Br627      Br  0.25615119  0.76199022  0.91804677     0.00900
Br628      Br  0.17814726  0.80970453  0.99142778    -0.03500
Br629      Br  0.17806988  0.88125968  0.90296212     0.01000
Br630      Br  0.23794884  0.84024776  0.99581536    -0.02800
Br631      Br  0.24937051  0.81995498  0.91970033    -0.03700
Br632      Br  0.19481209  0.75405447  0.99987514     0.00300
C633        C  0.21668892  0.92243992  0.73736393     0.01700
C634        C  0.21231659  0.94588721  0.74505726     0.04500
C635        C  0.20750667  0.95049198  0.76884235    -0.11500
C636        C  0.20865572  0.93202239  0.78542503     0.23800
C637        C  0.21284663  0.90859352  0.77799359    -0.12100
C638        C  0.21728917  0.90380658  0.75414891     0.05200
C639        C  0.20939019  0.93778068  0.81085466     0.27700
C640        C  0.23093793  0.94517660  0.82108216    -0.12800
C641        C  0.23212725  0.95076940  0.84515034     0.05800
C642        C  0.21196495  0.94745688  0.85973384    -0.08700
C643        C  0.19022143  0.93990009  0.84910711     0.06600
C644        C  0.18896257  0.93571979  0.82469888    -0.13100
Br645      Br  0.21377817  0.88329655  0.80091893    -0.05200
Br646      Br  0.21783772  0.97246372  0.72458808     0.00400
Br647      Br  0.26139991  0.96434664  0.85697965     0.00900
Br648      Br  0.15926734  0.92703166  0.80984115    -0.03500
Br649      Br  0.22663934  0.87199858  0.74540600     0.01000
Br650      Br  0.20093959  0.98245421  0.77923182    -0.02800
Br651      Br  0.25906586  0.94737964  0.80181380    -0.03700
Br652      Br  0.16185871  0.93394056  0.86721122     0.00300
C653        C  0.01147930  0.36125465  0.66738962     0.01700
C654        C  0.01721640  0.35951761  0.69157113     0.04500
C655        C  0.01070176  0.33915385  0.70448457    -0.11500
C656        C  0.99971299  0.31983218  0.69306819     0.23800
C657        C  0.99475912  0.32115679  0.66877643    -0.12100
C658        C  0.99990875  0.34202940  0.65613757     0.05200
C659        C  0.99363585  0.29771940  0.70611374     0.27700
C660        C  0.01090242  0.28005537  0.70917366    -0.12800
C661        C  0.00409814  0.25669521  0.71513133     0.05800
C662        C  0.97994539  0.25088189  0.71906625    -0.08700
C663        C  0.96291892  0.26947919  0.71778963     0.06600
C664        C  0.96986854  0.29275980  0.71167787    -0.13100
Br665      Br  0.98083875  0.29417543  0.65276222    -0.05200
Br666      Br  0.03507198  0.38443088  0.70695837     0.00400
Br667      Br  0.02762092  0.23242524  0.71248288     0.00900
Br668      Br  0.94654117  0.31766561  0.70854324    -0.03500
Br669      Br  0.98925224  0.34461047  0.62393120     0.01000
Br670      Br  0.01651507  0.33768729  0.73787817    -0.02800
Br671      Br  0.04372453  0.28746095  0.70250305    -0.03700
Br672      Br  0.92936499  0.26305976  0.72071021     0.00300
C673        C  0.01314234  0.18582475  0.87503776     0.01700
C674        C  0.02173260  0.20687132  0.86416641     0.04500
C675        C  0.01697322  0.21134717  0.84029313    -0.11500
C676        C  0.00517889  0.19420624  0.82658175     0.23800
C677        C  0.99855745  0.17231132  0.83667509    -0.12100
C678        C  0.00239179  0.16808438  0.86082604     0.05200
C679        C  0.99963969  0.19912940  0.80148617     0.27700
C680        C  0.97835337  0.21047894  0.79538901    -0.12800
C681        C  0.97192915  0.21313971  0.77159430     0.05800
C682        C  0.98700238  0.20498525  0.75341214    -0.08700
C683        C  0.00846321  0.19341064  0.75988662     0.06600
C684        C  0.01487550  0.19104944  0.78377060    -0.13100
Br685      Br  0.98342413  0.14842596  0.81731138    -0.05200
Br686      Br  0.04154369  0.22918422  0.88123163     0.00400
Br687      Br  0.94054097  0.22432705  0.76460981     0.00900
Br688      Br  0.04443156  0.17615058  0.79265744    -0.03500
Br689      Br  0.99214608  0.13813177  0.87386547     0.01000
Br690      Br  0.02590051  0.24135220  0.82637784    -0.02800
Br691      Br  0.95747426  0.22136673  0.81997322    -0.03700
Br692      Br  0.02897573  0.17906966  0.73706930     0.00300
C693        C  0.06402937  0.95918613  0.69909309     0.01700
C694        C  0.07962583  0.96469791  0.71809786     0.04500
C695        C  0.10403978  0.95950560  0.71657382    -0.11500
C696        C  0.11313801  0.94839785  0.69646611     0.23800
C697        C  0.09821625  0.94364436  0.67723440    -0.12100
C698        C  0.07400162  0.94963760  0.67807211     0.05200
C699        C  0.13855533  0.94172447  0.69528954     0.27700
C700        C  0.15506870  0.95724342  0.68493888    -0.12800
C701        C  0.17897246  0.95041850  0.68259379     0.05800
C702        C  0.18675583  0.92820628  0.69146733    -0.08700
C703        C  0.16970836  0.91240871  0.70101612     0.06600
C704        C  0.14582754  0.91921680  0.70308842    -0.13100
Br705      Br  0.11131393  0.92832324  0.64975324    -0.05200
Br706      Br  0.06862037  0.98041783  0.74615285     0.00400
Br707      Br  0.20022436  0.97207065  0.66720587     0.00900
Br708      Br  0.12279560  0.89771080  0.71654734    -0.03500
Br709      Br  0.05572276  0.94454016  0.64958556     0.01000
Br710      Br  0.12542223  0.96751746  0.74203904    -0.02800
Br711      Br  0.14466400  0.98812444  0.67431531    -0.03700
Br712      Br  0.17835596  0.88058513  0.70971079     0.00300
C713        C  0.99003219  0.03646887  0.70403083     0.01700
C714        C  0.97112478  0.04920805  0.69366669     0.04500
C715        C  0.96912425  0.07392034  0.69732968    -0.11500
C716        C  0.98575062  0.08599968  0.71161395     0.23800
C717        C  0.00493073  0.07350200  0.72143688    -0.12100
C718        C  0.00733134  0.04896939  0.71728251     0.05200
C719        C  0.98379995  0.11212098  0.71510062     0.27700
C720        C  0.99499441  0.12759137  0.69919404    -0.12800
C721        C  0.99137047  0.15221506  0.70080827     0.05800
C722        C  0.97685753  0.16171241  0.71874278    -0.08700
C723        C  0.96649601  0.14624181  0.73532337     0.06600
C724        C  0.97010699  0.12149099  0.73357802    -0.13100
Br725      Br  0.02776935  0.09015243  0.74079571    -0.05200
Br726      Br  0.94721907  0.03289761  0.67541169     0.00400
Br727      Br  0.00615402  0.17292262  0.67794389     0.00900
Br728      Br  0.95571062  0.10019881  0.75595945    -0.03500
Br729      Br  0.03517781  0.03285397  0.72873843     0.01000
Br730      Br  0.94340216  0.09138381  0.68307207    -0.02800
Br731      Br  0.01483440  0.11482724  0.67471620    -0.03700
Br732      Br  0.94582926  0.15852884  0.75919518     0.00300
C733        C  0.99837570  0.76357446  0.70599744     0.01700
C734        C  0.98180727  0.77734681  0.69301067     0.04500
C735        C  0.98065731  0.80203833  0.69620278    -0.11500
C736        C  0.99545253  0.81325858  0.71277000     0.23800
C737        C  0.01105296  0.79966060  0.72664457    -0.12100
C738        C  0.01312541  0.77499638  0.72275385     0.05200
C739        C  0.99605694  0.83959803  0.71356856     0.27700
C740        C  0.01147415  0.85203367  0.69851377    -0.12800
C741        C  0.01002563  0.87690686  0.69665540     0.05800
C742        C  0.99267521  0.88952864  0.70936647    -0.08700
C743        C  0.97764874  0.87697154  0.72496480     0.06600
C744        C  0.97959662  0.85212049  0.72725678    -0.13100
Br745      Br  0.03035732  0.81526467  0.75013537    -0.05200
Br746      Br  0.96078423  0.76285064  0.67005135     0.00400
Br747      Br  0.03285614  0.89348694  0.67764019     0.00900
Br748      Br  0.95954341  0.83491664  0.74882267    -0.03500
Br749      Br  0.03852969  0.75817039  0.73797594     0.01000
Br750      Br  0.95967790  0.82094278  0.67685533    -0.02800
Br751      Br  0.03434975  0.83472705  0.68008887    -0.03700
Br752      Br  0.95334116  0.89331993  0.74227223     0.00300
C753        C  0.78941284  0.95835051  0.71175575     0.01700
C754        C  0.80226212  0.97856955  0.71956703     0.04500
C755        C  0.82715173  0.97948851  0.71749511    -0.11500
C756        C  0.83965990  0.95976680  0.70890699     0.23800
C757        C  0.82710871  0.93953276  0.70122969    -0.12100
C758        C  0.80211434  0.93901410  0.70211217     0.05200
C759        C  0.86608049  0.96025097  0.70830763     0.27700
C760        C  0.87793921  0.96585268  0.68738013    -0.12800
C761        C  0.90295293  0.96686992  0.68682859     0.05800
C762        C  0.91661754  0.96202371  0.70751656    -0.08700
C763        C  0.90423733  0.95622894  0.72855986     0.06600
C764        C  0.87920151  0.95546421  0.72881524    -0.13100
Br765      Br  0.84442559  0.91229228  0.68997857    -0.05200
Br766      Br  0.78612640  0.00574506  0.73217753     0.00400
Br767      Br  0.91732033  0.97578901  0.65723553     0.00900
Br768      Br  0.86242657  0.94759733  0.75737535    -0.03500
Br769      Br  0.78584640  0.91088295  0.69151593     0.01000
Br770      Br  0.84437144  0.00798941  0.72596895    -0.02800
Br771      Br  0.85944013  0.97237254  0.65938925    -0.03700
Br772      Br  0.92060764  0.94832800  0.75743887     0.00300
C773        C  0.81694323  0.19261843  0.95353990     0.01700
C774        C  0.83107197  0.20064514  0.93448798     0.04500
C775        C  0.85535942  0.19516461  0.93372678    -0.11500
C776        C  0.86556896  0.18101166  0.95141021     0.23800
C777        C  0.85145044  0.17199949  0.96967174    -0.12100
C778        C  0.82753878  0.17874274  0.97140194     0.05200
C779        C  0.89165564  0.17829485  0.95244681     0.27700
C780        C  0.90314490  0.16158023  0.93813045    -0.12800
C781        C  0.92811167  0.16098220  0.93738873     0.05800
C782        C  0.94159395  0.17670569  0.95159894    -0.08700
C783        C  0.92985050  0.19177111  0.96760350     0.06600
C784        C  0.90501345  0.19321234  0.96736018    -0.13100
Br785      Br  0.86551960  0.15159286  0.99314573    -0.05200
Br786      Br  0.81788280  0.22015998  0.90964744     0.00400
Br787      Br  0.94332093  0.13931195  0.91607717     0.00900
Br788      Br  0.88926328  0.21636990  0.98683737    -0.03500
Br789      Br  0.81132339  0.17266178  0.00043631     0.01000
Br790      Br  0.87515322  0.20829795  0.90925080    -0.02800
Br791      Br  0.88444316  0.13999476  0.91920498    -0.03700
Br792      Br  0.94752388  0.20940526  0.99107092     0.00300
C793        C  0.80144673  0.97056582  0.19855222     0.01700
C794        C  0.80717029  0.94907124  0.18673115     0.04500
C795        C  0.83106657  0.94241448  0.18347066    -0.11500
C796        C  0.84949578  0.95649820  0.19267795     0.23800
C797        C  0.84405504  0.97668404  0.20605382    -0.12100
C798        C  0.82034958  0.98411556  0.20833063     0.05200
C799        C  0.87463218  0.95182339  0.18634446     0.27700
C800        C  0.88872849  0.93652418  0.20003810    -0.12800
C801        C  0.91317116  0.93440119  0.19537139     0.05800
C802        C  0.92390973  0.94873088  0.17789628    -0.08700
C803        C  0.90949324  0.96341930  0.16365857     0.06600
C804        C  0.88488442  0.96432789  0.16747565    -0.13100
Br805      Br  0.86960026  0.99495950  0.22006128    -0.05200
Br806      Br  0.78303150  0.92830552  0.17441213     0.00400
Br807      Br  0.93159907  0.91120380  0.21247203     0.00900
Br808      Br  0.86515085  0.98332849  0.14718942    -0.03500
Br809      Br  0.81501881  0.01493918  0.22148877     0.01000
Br810      Br  0.83893544  0.91450417  0.16541873    -0.02800
Br811      Br  0.87458601  0.91921522  0.22569321    -0.03700
Br812      Br  0.92324135  0.98419624  0.14027912     0.00300
C813        C  0.76968125  0.16324101  0.95863609     0.01700
C814        C  0.76027482  0.15008824  0.97777794     0.04500
C815        C  0.75960658  0.12501946  0.97699481    -0.11500
C816        C  0.76964360  0.11278138  0.95793125     0.23800
C817        C  0.77895455  0.12566204  0.93891316    -0.12100
C818        C  0.77791213  0.15062282  0.93874692     0.05200
C819        C  0.77017284  0.08632837  0.95756122     0.27700
C820        C  0.78805592  0.07394577  0.96979585    -0.12800
C821        C  0.78888213  0.04890152  0.96898929     0.05800
C822        C  0.77225792  0.03606193  0.95516557    -0.08700
C823        C  0.75469283  0.04871830  0.94244302     0.06600
C824        C  0.75332932  0.07364179  0.94416431    -0.13100
Br825      Br  0.79347657  0.10891018  0.91311501    -0.05200
Br826      Br  0.74995528  0.16545966  0.00611008     0.00400
Br827      Br  0.81203244  0.03251137  0.98807886     0.00900
Br828      Br  0.72818253  0.09063068  0.92833694    -0.03500
Br829      Br  0.78553497  0.16701468  0.91007392     0.01000
Br830      Br  0.74506710  0.10715640  0.00211729    -0.02800
Br831      Br  0.81141108  0.09153081  0.98771091    -0.03700
Br832      Br  0.73311854  0.03235726  0.92141423     0.00300
C833        C  0.77401023  0.96718587  0.02920996     0.01700
C834        C  0.76531955  0.98771843  0.04036069     0.04500
C835        C  0.76714929  0.99005032  0.06489368    -0.11500
C836        C  0.77761806  0.97184917  0.07839724     0.23800
C837        C  0.78659035  0.95143932  0.06725644    -0.12100
C838        C  0.78490814  0.94915667  0.04265900     0.05200
C839        C  0.77705411  0.97343867  0.10440511     0.27700
C840        C  0.79379754  0.98746043  0.11665424    -0.12800
C841        C  0.79075574  0.99206197  0.14080661     0.05800
C842        C  0.77167544  0.98158484  0.15300666    -0.08700
C843        C  0.75520560  0.96711824  0.14067597     0.06600
C844        C  0.75796144  0.96304377  0.11652056    -0.13100
Br845      Br  0.80049457  0.92640681  0.08588688    -0.05200
Br846      Br  0.75151955  0.01302920  0.02197568     0.00400
Br847      Br  0.81054323  0.01534200  0.15616592     0.00900
Br848      Br  0.73478296  0.94421437  0.09960806    -0.03500
Br849      Br  0.79653541  0.92084247  0.02750285     0.01000
Br850      Br  0.75479196  0.01798527  0.08018209    -0.02800
Br851      Br  0.82007702  0.00133436  0.09987101    -0.03700
Br852      Br  0.72818286  0.95329443  0.15660767     0.00300
C853        C  0.76856632  0.95940013  0.88466623     0.01700
C854        C  0.78400043  0.97421794  0.87162694     0.04500
C855        C  0.78393974  0.97331351  0.84689333    -0.11500
C856        C  0.76808015  0.95810815  0.83495286     0.23800
C857        C  0.75276677  0.94319193  0.84788291    -0.12100
C858        C  0.75319680  0.94360731  0.87265426     0.05200
C859        C  0.76630642  0.95903749  0.80884583     0.27700
C860        C  0.75279822  0.97700965  0.79813289    -0.12800
C861        C  0.74975536  0.97736127  0.77358771     0.05800
C862        C  0.75962503  0.95918293  0.75935836    -0.08700
C863        C  0.77324888  0.94118869  0.77031377     0.06600
C864        C  0.77714709  0.94158203  0.79484987    -0.13100
Br865      Br  0.73088704  0.92246249  0.83153676    -0.05200
Br866      Br  0.80429259  0.99697548  0.88738584     0.00400
Br867      Br  0.73087006  0.00255464  0.75991109     0.00900
Br868      Br  0.79647275  0.91757828  0.80969641    -0.03500
Br869      Br  0.73345995  0.92169258  0.88999323     0.01000
Br870      Br  0.80531482  0.99320590  0.82912780    -0.02800
Br871      Br  0.73729206  0.00049495  0.81744540    -0.03700
Br872      Br  0.78389489  0.91407578  0.75288917     0.00300
C873        C  0.76535509  0.88927769  0.96298282     0.01700
C874        C  0.78067085  0.87356071  0.95094565     0.04500
C875        C  0.77792539  0.84875214  0.95348778    -0.11500
C876        C  0.75944303  0.83945100  0.96733149     0.23800
C877        C  0.74402230  0.85493687  0.97911514    -0.12100
C878        C  0.74729119  0.87968392  0.97751333     0.05200
C879        C  0.75653172  0.81334590  0.97026471     0.27700
C880        C  0.74248138  0.80024696  0.95438908    -0.12800
C881        C  0.73902738  0.77562524  0.95769084     0.05800
C882        C  0.74942405  0.76387343  0.97725390    -0.08700
C883        C  0.76266502  0.77757218  0.99362548     0.06600
C884        C  0.76666426  0.80196236  0.98982124    -0.13100
Br885      Br  0.71834632  0.84196168  0.99758018    -0.05200
Br886      Br  0.80477666  0.88555413  0.93001511     0.00400
Br887      Br  0.72051919  0.75879510  0.93463940     0.00900
Br888      Br  0.78589711  0.82013718  0.01156913    -0.03500
Br889      Br  0.72781091  0.89997608  0.99684073     0.01000
Br890      Br  0.79946710  0.82724969  0.93810802    -0.02800
Br891      Br  0.72790044  0.81639734  0.92810196    -0.03700
Br892      Br  0.77357392  0.76384792  0.02264036     0.00300
C893        C  0.22355612  0.92116002  0.64913691     0.01700
C894        C  0.23842855  0.93814886  0.63809820     0.04500
C895        C  0.23953395  0.93943912  0.61349356    -0.11500
C896        C  0.22698694  0.92291502  0.59963154     0.23800
C897        C  0.21165082  0.90640619  0.61036625    -0.12100
C898        C  0.20989705  0.90552694  0.63508230     0.05200
C899        C  0.23306159  0.92085736  0.57436388     0.27700
C900        C  0.22265052  0.93605778  0.55764880    -0.12800
C901        C  0.23253260  0.93804210  0.53500123     0.05800
C902        C  0.25225241  0.92389108  0.52874224    -0.08700
C903        C  0.26074043  0.90669273  0.54476553     0.06600
C904        C  0.25166949  0.90569896  0.56769266    -0.13100
Br905      Br  0.19453271  0.88391426  0.59106629    -0.05200
Br906      Br  0.25901377  0.95864975  0.65651015     0.00400
Br907      Br  0.22016933  0.96170118  0.51373234     0.00900
Br908      Br  0.26574418  0.88454101  0.59051746    -0.03500
Br909      Br  0.19127716  0.88081438  0.64935553     0.01000
Br910      Br  0.25970495  0.96281928  0.59862107    -0.02800
Br911      Br  0.19557132  0.95487837  0.56642066    -0.03700
Br912      Br  0.28440595  0.88390298  0.53531523     0.00300
C913        C  0.23227382  0.97439865  0.21649106     0.01700
C914        C  0.24035701  0.99248093  0.23205033     0.04500
C915        C  0.24271997  0.98789710  0.25623348    -0.11500
C916        C  0.23695303  0.96537103  0.26526249     0.23800
C917        C  0.22756424  0.94779470  0.25031210    -0.12100
C918        C  0.22562897  0.95209733  0.22597770     0.05200
C919        C  0.24362263  0.95950528  0.28983585     0.27700
C920        C  0.26532333  0.94800336  0.29437059    -0.12800
C921        C  0.27314022  0.94477841  0.31761822     0.05800
C922        C  0.26012810  0.95454632  0.33644152    -0.08700
C923        C  0.23784751  0.96515429  0.33191014     0.06600
C924        C  0.22942888  0.96711490  0.30864139    -0.13100
Br925      Br  0.21953629  0.91702053  0.26314235    -0.05200
Br926      Br  0.25107168  0.02296957  0.22033016     0.00400
Br927      Br  0.30114824  0.92590673  0.32345174     0.00900
Br928      Br  0.19886474  0.98105476  0.30217828    -0.03500
Br929      Br  0.21790694  0.92581394  0.20591774     0.01000
Br930      Br  0.25620697  0.01174769  0.27685464    -0.02800
Br931      Br  0.28498820  0.93770853  0.26861384    -0.03700
Br932      Br  0.21944401  0.97867316  0.35704942     0.00300
C933        C  0.71446603  0.96009517  0.55048511     0.01700
C934        C  0.73594886  0.94795525  0.55512060     0.04500
C935        C  0.74611565  0.94850763  0.57782940    -0.11500
C936        C  0.73445917  0.96028322  0.59626748     0.23800
C937        C  0.71343287  0.97294652  0.59156666    -0.12100
C938        C  0.70377858  0.97332758  0.56869497     0.05200
C939        C  0.74261994  0.95727304  0.62104460     0.27700
C940        C  0.73512337  0.93721162  0.63375765    -0.12800
C941        C  0.73901556  0.93590526  0.65815596     0.05800
C942        C  0.75046055  0.95483340  0.67032542    -0.08700
C943        C  0.75922778  0.97430612  0.65712715     0.06600
C944        C  0.75559310  0.97529477  0.63254429    -0.13100
Br945      Br  0.69721074  0.98888213  0.61685610    -0.05200
Br946      Br  0.75057148  0.92870945  0.53121146     0.00400
Br947      Br  0.72655766  0.90865514  0.67492928     0.00900
Br948      Br  0.76692086  0.00208793  0.61456224    -0.03500
Br949      Br  0.67624085  0.99269596  0.56241115     0.01000
Br950      Br  0.77557885  0.93234132  0.58417349    -0.02800
Br951      Br  0.71773216  0.91224725  0.61783564    -0.02800
Br952      Br  0.77334650  0.00129620  0.67240302     0.00300
C953        C  0.71783830  0.96279737  0.35522300     0.01700
C954        C  0.70628563  0.97468856  0.33650123     0.04500
C955        C  0.71762314  0.97724335  0.31466735    -0.11500
C956        C  0.74104438  0.96912133  0.31163424     0.23800
C957        C  0.75289315  0.95786980  0.33035716    -0.12100
C958        C  0.74121959  0.95429553  0.35195036     0.05200
C959        C  0.75279968  0.97249368  0.28851305     0.27700
C960        C  0.75235676  0.95409820  0.27179733    -0.12800
C961        C  0.75861150  0.95874091  0.24827331     0.05800
C962        C  0.76484922  0.98201343  0.24107172    -0.08700
C963        C  0.76503484  0.00044182  0.25816022     0.06600
C964        C  0.76055857  0.99528411  0.28192710    -0.13100
Br965      Br  0.78508822  0.94720957  0.32615246    -0.05200
Br966      Br  0.67548913  0.98899487  0.34077500     0.00400
Br967      Br  0.75342441  0.93412236  0.22545683     0.00900
Br968      Br  0.76276573  0.01998146  0.30542015    -0.03500
Br969      Br  0.75702950  0.93640656  0.37630922     0.01000
Br970      Br  0.70088515  0.99161687  0.28857363    -0.02800
Br971      Br  0.74052363  0.92312544  0.28073483    -0.03700
Br972      Br  0.76661984  0.03355522  0.24914699     0.00300
C973        C  0.42339731  0.94525468  0.43797756     0.01700
C974        C  0.43590277  0.95751826  0.45584763     0.04500
C975        C  0.46080242  0.95615760  0.45715644    -0.11500
C976        C  0.47344242  0.94280608  0.44049929     0.23800
C977        C  0.46112736  0.93097122  0.42233482    -0.12100
C978        C  0.43616364  0.93213427  0.42105979     0.05200
C979        C  0.49975185  0.94158187  0.44200187     0.27700
C980        C  0.51373034  0.95868170  0.43038916    -0.12800
C981        C  0.53861146  0.95830454  0.43270261     0.05800
C982        C  0.54972541  0.94042365  0.44623939    -0.08700
C983        C  0.53565101  0.92326711  0.45783755     0.06600
C984        C  0.51073358  0.92389646  0.45574231    -0.13100
Br985      Br  0.47865351  0.91308986  0.39931924    -0.05200
Br986      Br  0.41921079  0.97740130  0.47787550     0.00400
Br987      Br  0.55719349  0.98331629  0.41850085     0.00900
Br988      Br  0.49146175  0.90048850  0.47156894    -0.03500
Br989      Br  0.41963426  0.91487040  0.39664154     0.01000
Br990      Br  0.47781713  0.97274841  0.48171409    -0.02800
Br991      Br  0.49858433  0.98270434  0.41138572    -0.03700
Br992      Br  0.55039473  0.89835807  0.47599446     0.00300
C993        C  0.72919213  0.20227181  0.96799441     0.01700
C994        C  0.71275855  0.19166989  0.95236038     0.04500
C995        C  0.68821902  0.19466949  0.95594823    -0.11500
C996        C  0.68013643  0.20945579  0.97418128     0.23800
C997        C  0.69629941  0.21843492  0.99085207    -0.12100
C998        C  0.72069781  0.21459524  0.98799931     0.05200
C999        C  0.65589727  0.21956542  0.97307941     0.27700
C1000       C  0.65147991  0.23859917  0.95754187    -0.12800
C1001       C  0.62917078  0.24960660  0.95718073     0.05800
C1002       C  0.61142574  0.24226333  0.97296596    -0.08700
C1003       C  0.61569717  0.22302742  0.98832865     0.06600
C1004       C  0.63788520  0.21157255  0.98826722    -0.13100
Br1005     Br  0.68516475  0.23818095  0.01626293    -0.05200
Br1006     Br  0.72329299  0.17630012  0.92411943     0.00400
Br1007     Br  0.62264503  0.27406713  0.93428343     0.00900
Br1008     Br  0.64391965  0.18535191  0.00926407    -0.03500
Br1009     Br  0.74253026  0.22796508  0.01088759     0.01000
Br1010     Br  0.66547851  0.18055821  0.93464181    -0.02800
Br1011     Br  0.67637293  0.25020348  0.93724071    -0.03700
Br1012     Br  0.59150837  0.21297110  0.01009019     0.00300
C1013       C  0.42064028  0.23134562  0.94346740     0.01700
C1014       C  0.40236456  0.24035116  0.92897797     0.04500
C1015       C  0.38048907  0.22832960  0.92738090    -0.11500
C1016       C  0.37704914  0.20672952  0.93948889     0.23800
C1017       C  0.39603487  0.19648615  0.95197519    -0.12100
C1018       C  0.41769352  0.20887921  0.95431803     0.05200
C1019       C  0.35263940  0.19695911  0.94193658     0.27700
C1020       C  0.33948181  0.20283780  0.96203262    -0.12800
C1021       C  0.31499708  0.19823379  0.96268352     0.05800
C1022       C  0.30317100  0.18845045  0.94281420    -0.08700
C1023       C  0.31686142  0.18058772  0.92359759     0.06600
C1024       C  0.34163613  0.18449089  0.92338133    -0.13100
Br1025     Br  0.39158451  0.16609452  0.96706768    -0.05200
Br1026     Br  0.40729774  0.26899664  0.91089297     0.00400
Br1027     Br  0.29725157  0.20854714  0.98989959     0.00900
Br1028     Br  0.36040585  0.17473413  0.89685072    -0.03500
Br1029     Br  0.44214790  0.19573922  0.97424625     0.01000
Br1030     Br  0.35466642  0.24227472  0.90979738    -0.02800
Br1031     Br  0.35454199  0.21982970  0.98765234    -0.03700
Br1032     Br  0.30175500  0.16753267  0.89615869     0.00300
C1033       C  0.70250323  0.73204075  0.98314766     0.01700
C1034       C  0.69155808  0.74519717  0.00119640     0.04500
C1035       C  0.66661817  0.74516509  0.00320696    -0.11500
C1036       C  0.65265271  0.73214667  0.98712640     0.23800
C1037       C  0.66337999  0.72120821  0.96770356    -0.12100
C1038       C  0.68818473  0.72039103  0.96612680     0.05200
C1039       C  0.62800138  0.72512850  0.99307441     0.27700
C1040       C  0.62449194  0.70476077  0.00706129    -0.12800
C1041       C  0.60175727  0.69471141  0.00914233     0.05800
C1042       C  0.58241636  0.70459023  0.99672433    -0.08700
C1043       C  0.58567228  0.72590771  0.98392601     0.06600
C1044       C  0.60845144  0.73626222  0.98231763    -0.13100
Br1045     Br  0.64398274  0.70512689  0.94452108    -0.05200
Br1046     Br  0.71042186  0.76020622  0.02524026     0.00400
Br1047     Br  0.59730849  0.66743630  0.02930170     0.00900
Br1048     Br  0.61338724  0.76490430  0.96435797    -0.03500
Br1049     Br  0.70230121  0.70076621  0.94199356     0.01000
Br1050     Br  0.65149219  0.76083839  0.02923744    -0.02800
Br1051     Br  0.65126763  0.68967253  0.02221018    -0.03700
Br1052     Br  0.55960281  0.73992534  0.96687271     0.00300
C1053       C  0.38738051  0.69714234  0.99627029     0.01700
C1054       C  0.36634391  0.68648749  0.00486011     0.04500
C1055       C  0.34406619  0.69564900  0.99844333    -0.11500
C1056       C  0.34254274  0.71660878  0.98499217     0.23800
C1057       C  0.36337784  0.72853390  0.97820250    -0.12100
C1058       C  0.38574270  0.71845208  0.98302971     0.05200
C1059       C  0.31902021  0.72431969  0.97599169     0.27700
C1060       C  0.31167039  0.71681047  0.95354437    -0.12800
C1061       C  0.28767094  0.71838102  0.94700882     0.05800
C1062       C  0.27070840  0.72761160  0.96293514    -0.08700
C1063       C  0.27859627  0.73693232  0.98467278     0.06600
C1064       C  0.30278534  0.73560930  0.99098740    -0.13100
Br1065     Br  0.36095224  0.75817808  0.96131625    -0.05200
Br1066     Br  0.36762768  0.65969463  0.02607758     0.00400
Br1067     Br  0.27792666  0.70508641  0.91704913     0.00900
Br1068     Br  0.31355888  0.74713162  0.02114538    -0.03500
Br1069     Br  0.41343201  0.73286764  0.96906869     0.01000
Br1070     Br  0.31548201  0.67862906  0.00689899    -0.02800
Br1071     Br  0.33415439  0.70193499  0.93268029    -0.03700
Br1072     Br  0.25625646  0.74791490  0.00758184     0.00300
C1073       C  0.49182045  0.53174217  0.98946414     0.01700
C1074       C  0.50802676  0.51972668  0.00430064     0.04500
C1075       C  0.50969725  0.49474705  0.00354814    -0.11500
C1076       C  0.49455608  0.48148048  0.98872757     0.23800
C1077       C  0.47781169  0.49333077  0.97453567    -0.12100
C1078       C  0.47679703  0.51835486  0.97446689     0.05200
C1079       C  0.49663921  0.45510425  0.98764175     0.27700
C1080       C  0.50935353  0.44438458  0.96921130    -0.12800
C1081       C  0.51144396  0.41946408  0.96812594     0.05800
C1082       C  0.50119506  0.40507676  0.98572375    -0.08700
C1083       C  0.48838388  0.41582066  0.00411782     0.06600
C1084       C  0.48598819  0.44074185  0.00498096    -0.13100
Br1085     Br  0.45622155  0.47509254  0.95518169    -0.05200
Br1086     Br  0.52713574  0.53713407  0.02672353     0.00400
Br1087     Br  0.52733322  0.40505508  0.94179393     0.00900
Br1088     Br  0.46800416  0.45533846  0.02983413    -0.03500
Br1089     Br  0.45580771  0.53406772  0.95256925     0.01000
Br1090     Br  0.53288541  0.47854004  0.02272455    -0.02800
Br1091     Br  0.52389980  0.46398500  0.94540921    -0.03700
Br1092     Br  0.47475492  0.39647978  0.02862139     0.00300
loop_ 
_geom_bond_atom_site_label_1 
_geom_bond_atom_site_label_2 
_geom_bond_distance 
_geom_bond_site_symmetry_2 
_ccdc_geom_bond_type 
N1            N2   1.323   1_556  A
N1            C5   1.343       .  A
N1           Cu9   2.081       .  S
N2            C3   1.348       .  A
N2           Cu8   2.079       .  S
C3            C4   1.385   1_554  A
C3            H6   1.081       .  S
C4            C5   1.384       .  A
C4         C1042   1.484       .  S
C5            H7   1.079       .  S
Cu8          N11   2.078       .  S
Cu9          N19   2.081       .  S
Cu10         N12   2.076       .  S
Cu10         N18   2.075       .  S
N11          N12   1.322   1_554  A
N11          C15   1.347       .  A
N12          C13   1.343       .  A
C13          C14   1.386       .  A
C13          H16   1.086       .  S
C14          C15   1.388   1_556  A
C14        C1053   1.490       .  S
C15          H17   1.080       .  S
N18          N19   1.321       .  A
N18          C22   1.346       .  A
N19          C20   1.347       .  A
C20          C21   1.388       .  A
C20          H23   1.080       .  S
C21          C22   1.387       .  A
C21        C1073   1.489       .  S
C22          H24   1.080       .  S
N25          N26   1.323       .  A
N25          C29   1.347       .  A
N25         Cu33   2.090       .  S
N26          C27   1.343       .  A
N26         Cu32   2.058       .  S
C27          C28   1.378       .  A
C27          H30   1.082       .  S
C28          C29   1.386       .  A
C28        C1002   1.476       .  S
C29          H31   1.081       .  S
Cu32         N35   2.058       .  S
Cu33         N43   2.090       .  S
Cu34         N36   2.084       .  S
Cu34         N42   2.084       .  S
N35          N36   1.321       .  A
N35          C39   1.344       .  A
N36          C37   1.345       .  A
C37          C38   1.388       .  A
C37          H40   1.079       .  S
C38          C39   1.383       .  A
C38        C1013   1.485       .  S
C39          H41   1.081       .  S
N42          N43   1.324       .  A
N42          C46   1.347       .  A
N43          C44   1.348       .  A
C44          C45   1.386       .  A
C44          H47   1.080       .  S
C45          C46   1.384       .  A
C45        C1082   1.485       .  S
C46          H48   1.078       .  S
N49          N50   1.322       .  A
N49          C53   1.344       .  A
N49         Cu57   2.075       .  S
N50          C51   1.347       .  A
N50         Cu56   2.085       .  S
C51          C52   1.387       .  A
C51          H54   1.083       .  S
C52          C53   1.385       .  A
C52         C953   1.489       .  S
C53          H55   1.085       .  S
Cu56         N59   2.086       .  S
Cu57         N67   2.075       .  S
Cu58         N60   2.083       .  S
Cu58         N66   2.082       .  S
N59          N60   1.323       .  A
N59          C63   1.348       .  A
N60          C61   1.345       .  A
C61          C62   1.387       .  A
C61          H64   1.080       .  S
C62          C63   1.388       .  A
C62         C933   1.491       .  S
C63          H65   1.083       .  S
N66          N67   1.322       .  A
N66          C70   1.348       .  A
N67          C68   1.345       .  A
C68          C69   1.384       .  A
C68          H71   1.081       .  S
C69          C70   1.386       .  A
C69         C982   1.484       .  S
C70          H72   1.080       .  S
N73          N74   1.322       .  A
N73          C77   1.343       .  A
N73         Cu81   2.076       .  S
N74          C75   1.346       .  A
N74         Cu80   2.071       .  S
C75          C76   1.384       .  A
C75          H78   1.082       .  S
C76          C77   1.385       .  A
C76         C922   1.483       .  S
C77          H79   1.080       .  S
Cu80         N83   2.070       .  S
Cu81         N91   2.076       .  S
Cu82         N84   2.078       .  S
Cu82         N90   2.078       .  S
N83          N84   1.322       .  A
N83          C87   1.347       .  A
N84          C85   1.343       .  A
C85          C86   1.386       .  A
C85          H88   1.080       .  S
C86          C87   1.385       .  A
C86         C902   1.486       .  S
C87          H89   1.082       .  S
N90          N91   1.321       .  A
N90          C94   1.345       .  A
N91          C92   1.347       .  A
C92          C93   1.386       .  A
C92          H95   1.081       .  S
C93          C94   1.386       .  A
C93         C973   1.485       .  S
C94          H96   1.080       .  S
O97        Cu105   1.998       .  S
O97         C107   1.276       .  A
O98        Cu105   1.995       .  S
O98         C108   1.275   1_565  A
O99        Cu105   2.023       .  S
O99         C109   1.280       .  A
O100       Cu105   2.020       .  S
O100        C110   1.280   1_556  A
O101       Cu106   1.996       .  S
O101        C110   1.275   1_556  A
O102       Cu106   2.003       .  S
O102        C109   1.276       .  A
O103       Cu106   2.035       .  S
O103        C108   1.282   1_565  A
O104       Cu106   2.030       .  S
O104        C107   1.281       .  A
Cu105      Cu106   2.369       .  S
C107        C873   1.491       .  S
C108        C822   1.491       .  S
C109        C853   1.485       .  S
C110        C833   1.474       .  S
N111        C115   1.367       .  A
N111        C112   1.373       .  A
N111        C793   1.460       .  S
C112        C113   1.382   1_565  A
C112        C962   1.492       .  S
C113        C114   1.364       .  A
C113        H116   1.082       .  S
C114        C115   1.379   1_545  A
C114        H117   1.082       .  S
C115        C842   1.483       .  S
N118        C122   1.369       .  A
N118        C119   1.368       .  A
N118        C813   1.456       .  S
C119        C120   1.382       .  A
C119        C993   1.487       .  S
C120        C121   1.363       .  A
C120        H123   1.083       .  S
C121        C122   1.380       .  A
C121        H124   1.082       .  S
C122        C773   1.489       .  S
O125       Cu133   2.035       .  S
O125        C135   1.281       .  A
O126       Cu133   2.033   1_455  S
O126        C136   1.281       .  A
O127       Cu133   1.997       .  S
O127        C137   1.275   1_565  A
O128       Cu133   1.996       .  S
O128        C138   1.274       .  A
O129       Cu134   2.036       .  S
O129        C138   1.282       .  A
O130       Cu134   2.042       .  S
O130        C137   1.282   1_565  A
O131       Cu134   1.995   1_455  S
O131        C136   1.273       .  A
O132       Cu134   1.997       .  S
O132        C135   1.273       .  A
Cu133      Cu134   2.356       .  S
C135        C762   1.509       .  S
C136        C693   1.505       .  S
C137        C713   1.488       .  S
C138        C742   1.487       .  S
N139        C143   1.368       .  A
N139        C140   1.375       .  A
N139        C682   1.457       .  S
C140        C141   1.382       .  A
C140        C662   1.500       .  S
C141        C142   1.364       .  A
C141        H144   1.082       .  S
C142        C143   1.380       .  A
C142        H145   1.083       .  S
C143        C722   1.487       .  S
N146        C150   1.367       .  A
N146        C147   1.366       .  A
N146        C702   1.453       .  S
C147        C148   1.383       .  A
C147        C893   1.487       .  S
C148        C149   1.368       .  A
C148        H151   1.082       .  S
C149        C150   1.380       .  A
C149        H152   1.082       .  S
C150        C633   1.490       .  S
O153       Cu161   1.997       .  S
O153        C163   1.276       .  A
O154       Cu161   2.018       .  S
O154        C164   1.278   1_565  A
O155       Cu161   2.003       .  S
O155        C165   1.278       .  A
O156       Cu161   2.019       .  S
O156        C166   1.279       .  A
O157       Cu162   2.002       .  S
O157        C166   1.275       .  A
O158       Cu162   1.996       .  S
O158        C165   1.275       .  A
O159       Cu162   2.031       .  S
O159        C164   1.281   1_565  A
O160       Cu162   2.048       .  S
O160        C163   1.282       .  A
Cu161      Cu162   2.363       .  S
C163        C613   1.486       .  S
C164        C573   1.501       .  S
C165        C593   1.481   1_556  S
C166        C642   1.500       .  S
O167       Cu175   2.018       .  S
O167        C177   1.279       .  A
O168       Cu175   2.028   1_455  S
O168        C178   1.279       .  A
O169       Cu175   1.987       .  S
O169        C179   1.274   1_655  A
O170       Cu175   2.002       .  S
O170        C180   1.277   1_565  A
O171       Cu176   2.006       .  S
O171        C180   1.277   1_565  A
O172       Cu176   2.016   1_455  S
O172        C179   1.279       .  A
O173       Cu176   2.007   1_455  S
O173        C178   1.276       .  A
O174       Cu176   1.999       .  S
O174        C177   1.276       .  A
Cu175      Cu176   2.367       .  S
C177        C802   1.485       .  S
C178        C513   1.510       .  S
C179        C562   1.472       .  S
C180        C542   1.475       .  S
O181       Cu189   2.010   1_655  S
O181        C191   1.277       .  A
O182       Cu189   2.004       .  S
O182        C192   1.277       .  A
O183       Cu189   2.029       .  S
O183        C193   1.281       .  A
O184       Cu189   2.037       .  S
O184        C194   1.281       .  A
O185       Cu190   1.982       .  S
O185        C194   1.274       .  A
O186       Cu190   1.998       .  S
O186        C193   1.276       .  A
O187       Cu190   2.021       .  S
O187        C192   1.279       .  A
O188       Cu190   1.999   1_655  S
O188        C191   1.278       .  A
Cu189      Cu190   2.365       .  S
C191        C782   1.481       .  S
C192        C473   1.490       .  S
C193        C493   1.489   1_556  S
C194        C673   1.493       .  S
N195        C199   1.369       .  A
N195        C196   1.368       .  A
N195        C502   1.455       .  S
C196        C197   1.383       .  A
C196        C462   1.490       .  S
C197        C198   1.362       .  A
C197        H200   1.083       .  S
C198        C199   1.379       .  A
C198        H201   1.082       .  S
C199        C533   1.488       .  S
N202        C206   1.367       .  A
N202        C203   1.371       .  A
N202        C522   1.458       .  S
C203        C204   1.383       .  A
C203        C913   1.493       .  S
C204        C205   1.363       .  A
C204        H207   1.083       .  S
C205        C206   1.379       .  A
C205        H208   1.082       .  S
C206        C602   1.481       .  S
N209        C213   1.372       .  A
N209        C210   1.372       .  A
N209        C582   1.460       .  S
C210        C211   1.383       .  A
C210       C1022   1.490       .  S
C211        C212   1.359       .  A
C211        H214   1.083       .  S
C212        C213   1.379       .  A
C212        H215   1.083       .  S
C213        C482   1.489       .  S
O216       Cu224   2.020       .  S
O216        C226   1.280       .  A
O217       Cu224   2.004   1_455  S
O217        C227   1.278       .  A
O218       Cu224   1.989       .  S
O218        C228   1.274       .  A
O219       Cu224   2.014       .  S
O219        C229   1.277       .  A
O220       Cu225   2.023       .  S
O220        C229   1.280       .  A
O221       Cu225   2.043       .  S
O221        C228   1.282       .  A
O222       Cu225   1.991   1_455  S
O222        C227   1.274       .  A
O223       Cu225   1.973       .  S
O223        C226   1.272       .  A
Cu224      Cu225   2.362       .  S
C226        C413   1.478       .  S
C227        C373   1.486       .  S
C228        C393   1.500   1_556  S
C229        C433   1.499       .  S
N230        C234   1.364       .  A
N230        C231   1.374       .  A
N230        C402   1.458       .  S
C231        C232   1.383       .  A
C231        C362   1.496       .  S
C232        C233   1.366       .  A
C232        H235   1.083       .  S
C233        C234   1.379       .  A
C233        H236   1.082       .  S
C234        C553   1.478       .  S
N237        C241   1.367       .  A
N237        C238   1.370       .  A
N237        C622   1.459       .  S
C238        C239   1.383       .  A
C238       C1062   1.488       .  S
C239        C240   1.363       .  A
C239        H242   1.083       .  S
C240        C241   1.378       .  A
C240        H243   1.082       .  S
C241        C382   1.481       .  S
N244        C248   1.370   1_655  A
N244        C245   1.372   1_655  A
N244        C442   1.454       .  S
C245        C246   1.383       .  A
C245        C333   1.497       .  S
C246        C247   1.362       .  A
C246        H249   1.083       .  S
C247        C248   1.380       .  A
C247        H250   1.083       .  S
C248        C733   1.492   1_455  S
N251        C255   1.372       .  A
N251        C252   1.373       .  A
N251        C753   1.453       .  S
C252        C253   1.382       .  A
C252        C942   1.499       .  S
C253        C254   1.364       .  A
C253        H256   1.083       .  S
C254        C255   1.381       .  A
C254        H257   1.083       .  S
C255        C862   1.498       .  S
N258        C262   1.367       .  A
N258        C259   1.365       .  A
N258        C882   1.456       .  S
C259        C260   1.382       .  A
C259       C1033   1.483       .  S
C260        C261   1.365       .  A
C260        H263   1.083       .  S
C261        C262   1.380       .  A
C261        H264   1.082       .  S
C262        C422   1.485       .  S
N265        N266   1.321       .  A
N265        C269   1.348       .  A
N265       Cu273   2.087       .  S
N266        C267   1.342       .  A
N266       Cu272   2.062       .  S
C267        C268   1.381       .  A
C267        H270   1.084   1_455  S
C268        C269   1.390       .  A
C268        C653   1.486       .  S
C269        H271   1.085       .  S
Cu272       N275   2.062       .  S
Cu273       N283   2.087       .  S
Cu274       N276   2.091       .  S
Cu274       N282   2.091       .  S
N275        N276   1.321       .  A
N275        C279   1.344   1_455  A
N276        C277   1.347       .  A
C277        C278   1.390       .  A
C277        H280   1.080       .  S
C278        C279   1.382   1_455  A
C278        C342   1.486   1_455  S
C279        H281   1.084       .  S
N282        N283   1.324       .  A
N282        C286   1.348       .  A
N283        C284   1.347       .  A
C284        C285   1.384       .  A
C284        H287   1.081       .  S
C285        C286   1.385       .  A
C285        C313   1.484       .  S
C286        H288   1.079       .  S
N289        N290   1.322       .  A
N289        C293   1.344       .  A
N289       Cu297   2.078       .  S
N290        C291   1.345   1_655  A
N290       Cu296   2.064   1_655  S
C291        C292   1.381   1_455  A
C291        H294   1.083       .  S
C292        C293   1.385       .  A
C292        C453   1.478       .  S
C293        H295   1.081       .  S
Cu296       N299   2.064       .  S
Cu297       N307   2.077       .  S
Cu298       N300   2.090       .  S
Cu298       N306   2.091       .  S
N299        N300   1.322   1_455  A
N299        C303   1.343       .  A
N300        C301   1.346       .  A
C301        C302   1.390       .  A
C301        H304   1.084       .  S
C302        C303   1.384   1_655  A
C302        C353   1.489   1_655  S
C303        H305   1.083       .  S
N306        N307   1.322       .  A
N306        C310   1.348       .  A
N307        C308   1.346       .  A
C308        C309   1.386       .  A
C308        H311   1.080       .  S
C309        C310   1.389       .  A
C309        C322   1.492       .  S
C310        H312   1.079       .  S
C313        C314   1.413       .  A
C313        C318   1.410       .  A
C314        C315   1.409       .  A
C314       Br326   1.931   1_455  S
C315        C316   1.410       .  A
C315       Br330   1.929   1_455  S
C316        C317   1.412       .  A
C316        C319   1.492       .  S
C317        C318   1.410       .  A
C317       Br325   1.931       .  S
C318       Br329   1.928       .  S
C319        C320   1.409       .  A
C319        C324   1.410   1_455  A
C320        C321   1.411       .  A
C320       Br331   1.931       .  S
C321        C322   1.417   1_455  A
C321       Br327   1.931       .  S
C322        C323   1.414       .  A
C323        C324   1.410       .  A
C323       Br332   1.930       .  S
C324       Br328   1.931       .  S
C333        C334   1.422       .  A
C333        C338   1.417   1_455  A
C334        C335   1.405       .  A
C334       Br346   1.938       .  S
C335        C336   1.406   1_455  A
C335       Br350   1.935       .  S
C336        C337   1.407       .  A
C336        C339   1.489       .  S
C337        C338   1.413       .  A
C337       Br345   1.930       .  S
C338       Br349   1.918       .  S
C339        C340   1.411       .  A
C339        C344   1.408   1_655  A
C340        C341   1.408       .  A
C340       Br351   1.931       .  S
C341        C342   1.412       .  A
C341       Br347   1.931       .  S
C342        C343   1.416   1_655  A
C343        C344   1.410       .  A
C343       Br352   1.930       .  S
C344       Br348   1.930       .  S
C353        C354   1.419   1_455  A
C353        C358   1.415       .  A
C354        C355   1.411       .  A
C354       Br366   1.931       .  S
C355        C356   1.406   1_655  A
C355       Br370   1.930       .  S
C356        C357   1.410       .  A
C356        C359   1.487       .  S
C357        C358   1.406       .  A
C357       Br365   1.934       .  S
C358       Br369   1.933       .  S
C359        C360   1.405       .  A
C359        C364   1.404   1_455  A
C360        C361   1.409       .  A
C360       Br371   1.933       .  S
C361        C362   1.422       .  A
C361       Br367   1.930       .  S
C362        C363   1.417       .  A
C363        C364   1.409   1_455  A
C363       Br372   1.915   1_455  S
C364       Br368   1.934       .  S
C373        C374   1.418       .  A
C373        C378   1.423       .  A
C374        C375   1.404       .  A
C374       Br386   1.935       .  S
C375        C376   1.405       .  A
C375       Br390   1.933       .  S
C376        C377   1.402       .  A
C376        C379   1.475       .  S
C377        C378   1.406       .  A
C377       Br385   1.933       .  S
C378       Br389   1.934       .  S
C379        C380   1.405       .  A
C379        C384   1.405       .  A
C380        C381   1.402       .  A
C380       Br391   1.933       .  S
C381        C382   1.417       .  A
C381       Br387   1.937       .  S
C382        C383   1.412       .  A
C383        C384   1.406       .  A
C383       Br392   1.924       .  S
C384       Br388   1.930       .  S
C393        C394   1.424       .  A
C393        C398   1.420       .  A
C394        C395   1.408       .  A
C394       Br406   1.936       .  S
C395        C396   1.403       .  A
C395       Br410   1.932       .  S
C396        C397   1.408       .  A
C396        C399   1.489       .  S
C397        C398   1.413       .  A
C397       Br405   1.931   1_655  S
C398       Br409   1.930   1_655  S
C399        C400   1.404       .  A
C399        C404   1.404   1_655  A
C400        C401   1.413       .  A
C400       Br411   1.932       .  S
C401        C402   1.425   1_655  A
C401       Br407   1.922       .  S
C402        C403   1.418       .  A
C403        C404   1.408       .  A
C403       Br412   1.920       .  S
C404       Br408   1.934       .  S
C413        C414   1.411       .  A
C413        C418   1.420       .  A
C414        C415   1.405       .  A
C414       Br426   1.929       .  S
C415        C416   1.410       .  A
C415       Br430   1.932       .  S
C416        C417   1.404       .  A
C416        C419   1.478       .  S
C417        C418   1.403       .  A
C417       Br425   1.933       .  S
C418       Br429   1.936       .  S
C419        C420   1.405       .  A
C419        C424   1.407       .  A
C420        C421   1.402       .  A
C420       Br431   1.932       .  S
C421        C422   1.411       .  A
C421       Br427   1.920       .  S
C422        C423   1.419       .  A
C423        C424   1.406       .  A
C423       Br432   1.936   1_556  S
C424       Br428   1.933   1_556  S
C433        C434   1.420       .  A
C433        C438   1.422       .  A
C434        C435   1.410       .  A
C434       Br446   1.933   1_655  S
C435        C436   1.407       .  A
C435       Br450   1.932   1_655  S
C436        C437   1.406       .  A
C436        C439   1.490       .  S
C437        C438   1.412       .  A
C437       Br445   1.932       .  S
C438       Br449   1.931       .  S
C439        C440   1.406       .  A
C439        C444   1.407   1_655  A
C440        C441   1.410       .  A
C440       Br451   1.930       .  S
C441        C442   1.418       .  A
C441       Br447   1.925       .  S
C442        C443   1.417   1_655  A
C443        C444   1.410       .  A
C443       Br452   1.922       .  S
C444       Br448   1.932       .  S
C453        C454   1.410   1_655  A
C453        C458   1.412       .  A
C454        C455   1.405       .  A
C454       Br466   1.932       .  S
C455        C456   1.412   1_455  A
C455       Br470   1.933       .  S
C456        C457   1.409       .  A
C456        C459   1.486       .  S
C457        C458   1.409       .  A
C457       Br465   1.929       .  S
C458       Br469   1.930       .  S
C459        C460   1.409   1_655  A
C459        C464   1.407       .  A
C460        C461   1.412       .  A
C460       Br471   1.930       .  S
C461        C462   1.415   1_455  A
C461       Br467   1.921       .  S
C462        C463   1.419       .  A
C463        C464   1.403       .  A
C463       Br472   1.938       .  S
C464       Br468   1.935       .  S
C473        C474   1.420       .  A
C473        C478   1.417       .  A
C474        C475   1.407       .  A
C474       Br486   1.933       .  S
C475        C476   1.404       .  A
C475       Br490   1.932       .  S
C476        C477   1.408       .  A
C476        C479   1.483       .  S
C477        C478   1.409       .  A
C477       Br485   1.932       .  S
C478       Br489   1.928       .  S
C479        C480   1.407       .  A
C479        C484   1.405       .  A
C480        C481   1.408       .  A
C480       Br491   1.931       .  S
C481        C482   1.413       .  A
C481       Br487   1.923       .  S
C482        C483   1.421       .  A
C483        C484   1.406       .  A
C483       Br492   1.937       .  S
C484       Br488   1.932       .  S
C493        C494   1.416       .  A
C493        C498   1.418   1_455  A
C494        C495   1.407       .  A
C494       Br506   1.927       .  S
C495        C496   1.406   1_455  A
C495       Br510   1.932       .  S
C496        C497   1.408       .  A
C496        C499   1.486       .  S
C497        C498   1.411       .  A
C497       Br505   1.930       .  S
C498       Br509   1.932       .  S
C499        C500   1.405   1_655  A
C499        C504   1.406       .  A
C500        C501   1.407       .  A
C500       Br511   1.932       .  S
C501        C502   1.418   1_455  A
C501       Br507   1.923       .  S
C502        C503   1.419       .  A
C503        C504   1.411       .  A
C503       Br512   1.922       .  S
C504       Br508   1.931       .  S
C513        C514   1.429       .  A
C513        C518   1.429       .  A
C514        C515   1.414       .  A
C514       Br526   1.934       .  S
C515        C516   1.405       .  A
C515       Br530   1.934       .  S
C516        C517   1.403       .  A
C516        C519   1.490       .  S
C517        C518   1.410       .  A
C517       Br525   1.936       .  S
C518       Br529   1.937       .  S
C519        C520   1.405       .  A
C519        C524   1.405       .  A
C520        C521   1.410       .  A
C520       Br531   1.934       .  S
C521        C522   1.421       .  A
C521       Br527   1.922       .  S
C522        C523   1.418       .  A
C523        C524   1.410       .  A
C523       Br532   1.919   1_565  S
C524       Br528   1.932   1_565  S
C533        C534   1.413       .  A
C533        C538   1.420   1_655  A
C534        C535   1.408       .  A
C534       Br546   1.922       .  S
C535        C536   1.407       .  A
C535       Br550   1.930       .  S
C536        C537   1.406   1_655  A
C536        C539   1.480       .  S
C537        C538   1.403       .  A
C537       Br545   1.934       .  S
C538       Br549   1.938       .  S
C539        C540   1.410       .  A
C539        C544   1.407   1_655  A
C540        C541   1.407       .  A
C540       Br551   1.931       .  S
C541        C542   1.412       .  A
C541       Br547   1.932       .  S
C542        C543   1.411   1_655  A
C543        C544   1.404       .  A
C543       Br552   1.927       .  S
C544       Br548   1.932       .  S
C553        C554   1.416       .  A
C553        C558   1.409       .  A
C554        C555   1.402   1_455  A
C554       Br566   1.935   1_455  S
C555        C556   1.404   1_655  A
C555       Br570   1.931       .  S
C556        C557   1.408       .  A
C556        C559   1.476       .  S
C557        C558   1.406       .  A
C557       Br565   1.930       .  S
C558       Br569   1.923       .  S
C559        C560   1.406   1_455  A
C559        C564   1.408       .  A
C560        C561   1.406       .  A
C560       Br571   1.929       .  S
C561        C562   1.414   1_655  A
C561       Br567   1.932       .  S
C562        C563   1.409       .  A
C563        C564   1.403       .  A
C563       Br572   1.928       .  S
C564       Br568   1.932       .  S
C573        C574   1.420       .  A
C573        C578   1.419       .  A
C574        C575   1.413       .  A
C574       Br586   1.933       .  S
C575        C576   1.409       .  A
C575       Br590   1.932       .  S
C576        C577   1.409       .  A
C576        C579   1.497       .  S
C577        C578   1.413       .  A
C577       Br585   1.931       .  S
C578       Br589   1.930       .  S
C579        C580   1.407       .  A
C579        C584   1.409       .  A
C580        C581   1.411       .  A
C580       Br591   1.931       .  S
C581        C582   1.418       .  A
C581       Br587   1.922       .  S
C582        C583   1.419       .  A
C583        C584   1.414       .  A
C583       Br592   1.920       .  S
C584       Br588   1.932       .  S
C593        C594   1.416       .  A
C593        C598   1.418       .  A
C594        C595   1.405       .  A
C594       Br606   1.934   1_554  S
C595        C596   1.407       .  A
C595       Br610   1.932       .  S
C596        C597   1.404       .  A
C596        C599   1.477       .  S
C597        C598   1.406       .  A
C597       Br605   1.932       .  S
C598       Br609   1.933       .  S
C599        C600   1.404       .  A
C599        C604   1.407       .  A
C600        C601   1.402       .  A
C600       Br611   1.932       .  S
C601        C602   1.417       .  A
C601       Br607   1.937       .  S
C602        C603   1.411       .  A
C603        C604   1.407       .  A
C603       Br612   1.923   1_565  S
C604       Br608   1.930   1_565  S
C613        C614   1.414       .  A
C613        C618   1.411       .  A
C614        C615   1.408       .  A
C614       Br626   1.931       .  S
C615        C616   1.409       .  A
C615       Br630   1.931       .  S
C616        C617   1.412       .  A
C616        C619   1.493       .  S
C617        C618   1.413       .  A
C617       Br625   1.930       .  S
C618       Br629   1.924       .  S
C619        C620   1.407       .  A
C619        C624   1.406       .  A
C620        C621   1.410       .  A
C620       Br631   1.933       .  S
C621        C622   1.418       .  A
C621       Br627   1.919       .  S
C622        C623   1.421       .  A
C623        C624   1.411       .  A
C623       Br632   1.923       .  S
C624       Br628   1.931       .  S
C633        C634   1.413       .  A
C633        C638   1.419       .  A
C634        C635   1.406       .  A
C634       Br646   1.921       .  S
C635        C636   1.405       .  A
C635       Br650   1.931       .  S
C636        C637   1.406       .  A
C636        C639   1.483       .  S
C637        C638   1.407       .  A
C637       Br645   1.931       .  S
C638       Br649   1.934       .  S
C639        C640   1.406       .  A
C639        C644   1.402       .  A
C640        C641   1.407       .  A
C640       Br651   1.935       .  S
C641        C642   1.422       .  A
C641       Br647   1.934       .  S
C642        C643   1.427       .  A
C643        C644   1.410       .  A
C643       Br652   1.934       .  S
C644       Br648   1.933       .  S
C653        C654   1.416       .  A
C653        C658   1.413   1_455  A
C654        C655   1.410       .  A
C654       Br666   1.931       .  S
C655        C656   1.407   1_455  A
C655       Br670   1.929       .  S
C656        C657   1.411       .  A
C656        C659   1.488       .  S
C657        C658   1.407       .  A
C657       Br665   1.933       .  S
C658       Br669   1.932       .  S
C659        C660   1.404   1_655  A
C659        C664   1.405       .  A
C660        C661   1.410       .  A
C660       Br671   1.934       .  S
C661        C662   1.417   1_455  A
C661       Br667   1.914       .  S
C662        C663   1.424       .  A
C663        C664   1.410       .  A
C663       Br672   1.932       .  S
C664       Br668   1.933       .  S
C673        C674   1.421       .  A
C673        C678   1.417       .  A
C674        C675   1.406       .  A
C674       Br686   1.936       .  S
C675        C676   1.404       .  A
C675       Br690   1.931       .  S
C676        C677   1.409   1_455  A
C676        C679   1.487   1_455  S
C677        C678   1.411   1_655  A
C677       Br685   1.932       .  S
C678       Br689   1.929   1_455  S
C679        C680   1.403       .  A
C679        C684   1.404   1_655  A
C680        C681   1.408       .  A
C680       Br691   1.934       .  S
C681        C682   1.419       .  A
C681       Br687   1.920       .  S
C682        C683   1.423   1_655  A
C683        C684   1.411       .  A
C683       Br692   1.922       .  S
C684       Br688   1.933       .  S
C693        C694   1.424       .  A
C693        C698   1.430       .  A
C694        C695   1.411       .  A
C694       Br706   1.932       .  S
C695        C696   1.404       .  A
C695       Br710   1.933       .  S
C696        C697   1.402       .  A
C696        C699   1.484       .  S
C697        C698   1.408       .  A
C697       Br705   1.937       .  S
C698       Br709   1.938       .  S
C699        C700   1.405       .  A
C699        C704   1.404       .  A
C700        C701   1.409       .  A
C700       Br711   1.932       .  S
C701        C702   1.418       .  A
C701       Br707   1.919       .  S
C702        C703   1.417       .  A
C703        C704   1.406       .  A
C703       Br712   1.922       .  S
C704       Br708   1.932       .  S
C713        C714   1.413       .  A
C713        C718   1.415   1_655  A
C714        C715   1.411       .  A
C714       Br726   1.927       .  S
C715        C716   1.410       .  A
C715       Br730   1.930       .  S
C716        C717   1.406   1_655  A
C716        C719   1.488       .  S
C717        C718   1.408       .  A
C717       Br725   1.930       .  S
C718       Br729   1.927       .  S
C719        C720   1.406       .  A
C719        C724   1.411       .  A
C720        C721   1.405       .  A
C720       Br731   1.931   1_655  S
C721        C722   1.417       .  A
C721       Br727   1.936   1_655  S
C722        C723   1.411       .  A
C723        C724   1.412       .  A
C723       Br732   1.924       .  S
C724       Br728   1.928       .  S
C733        C734   1.421       .  A
C733        C738   1.415   1_655  A
C734        C735   1.403       .  A
C734       Br746   1.938       .  S
C735        C736   1.404       .  A
C735       Br750   1.934       .  S
C736        C737   1.407   1_655  A
C736        C739   1.483       .  S
C737        C738   1.411       .  A
C737       Br745   1.929       .  S
C738       Br749   1.922       .  S
C739        C740   1.407   1_655  A
C739        C744   1.406       .  A
C740        C741   1.406       .  A
C740       Br751   1.932       .  S
C741        C742   1.413   1_455  A
C741       Br747   1.924       .  S
C742        C743   1.416       .  A
C743        C744   1.409       .  A
C743       Br752   1.928       .  S
C744       Br748   1.930       .  S
C753        C754   1.417       .  A
C753        C758   1.417       .  A
C754        C755   1.409       .  A
C754       Br766   1.923   1_565  S
C755        C756   1.406       .  A
C755       Br770   1.932   1_565  S
C756        C757   1.407       .  A
C756        C759   1.490       .  S
C757        C758   1.410       .  A
C757       Br765   1.932       .  S
C758       Br769   1.922       .  S
C759        C760   1.404       .  A
C759        C764   1.405       .  A
C760        C761   1.411       .  A
C760       Br771   1.936       .  S
C761        C762   1.431       .  A
C761       Br767   1.937       .  S
C762        C763   1.426       .  A
C763        C764   1.412       .  A
C763       Br772   1.934       .  S
C764       Br768   1.934       .  S
C773        C774   1.421       .  A
C773        C778   1.413       .  A
C774        C775   1.405       .  A
C774       Br786   1.937       .  S
C775        C776   1.406       .  A
C775       Br790   1.933       .  S
C776        C777   1.405       .  A
C776        C779   1.480       .  S
C777        C778   1.405       .  A
C777       Br785   1.931       .  S
C778       Br789   1.922   1_556  S
C779        C780   1.406       .  A
C779        C784   1.408       .  A
C780        C781   1.408       .  A
C780       Br791   1.931       .  S
C781        C782   1.416       .  A
C781       Br787   1.927       .  S
C782        C783   1.413       .  A
C783        C784   1.402       .  A
C783       Br792   1.934       .  S
C784       Br788   1.932       .  S
C793        C794   1.423       .  A
C793        C798   1.419       .  A
C794        C795   1.412       .  A
C794       Br806   1.920       .  S
C795        C796   1.404       .  A
C795       Br810   1.931       .  S
C796        C797   1.403       .  A
C796        C799   1.488       .  S
C797        C798   1.408       .  A
C797       Br805   1.935       .  S
C798       Br809   1.915   1_565  S
C799        C800   1.407       .  A
C799        C804   1.409       .  A
C800        C801   1.410       .  A
C800       Br811   1.929       .  S
C801        C802   1.417       .  A
C801       Br807   1.931       .  S
C802        C803   1.414       .  A
C803        C804   1.406       .  A
C803       Br812   1.934       .  S
C804       Br808   1.926       .  S
C813        C814   1.420       .  A
C813        C818   1.417       .  A
C814        C815   1.412       .  A
C814       Br826   1.923   1_556  S
C815        C816   1.407       .  A
C815       Br830   1.931   1_556  S
C816        C817   1.405       .  A
C816        C819   1.489       .  S
C817        C818   1.406       .  A
C817       Br825   1.932       .  S
C818       Br829   1.924       .  S
C819        C820   1.409       .  A
C819        C824   1.407       .  A
C820        C821   1.411       .  A
C820       Br831   1.931       .  S
C821        C822   1.417       .  A
C821       Br827   1.931       .  S
C822        C823   1.418       .  A
C823        C824   1.409       .  A
C823       Br832   1.933       .  S
C824       Br828   1.932       .  S
C833        C834   1.409       .  A
C833        C838   1.412       .  A
C834        C835   1.406       .  A
C834       Br846   1.931   1_565  S
C835        C836   1.410       .  A
C835       Br850   1.931   1_565  S
C836        C837   1.409       .  A
C836        C839   1.483       .  S
C837        C838   1.408       .  A
C837       Br845   1.929       .  S
C838       Br849   1.930       .  S
C839        C840   1.410       .  A
C839        C844   1.406       .  A
C840        C841   1.410       .  A
C840       Br851   1.928   1_565  S
C841        C842   1.410       .  A
C841       Br847   1.925   1_565  S
C842        C843   1.416       .  A
C843        C844   1.403       .  A
C843       Br852   1.936       .  S
C844       Br848   1.932       .  S
C853        C854   1.415       .  A
C853        C858   1.413       .  A
C854        C855   1.409       .  A
C854       Br866   1.932       .  S
C855        C856   1.408       .  A
C855       Br870   1.930       .  S
C856        C857   1.411       .  A
C856        C859   1.490       .  S
C857        C858   1.410       .  A
C857       Br865   1.930       .  S
C858       Br869   1.931       .  S
C859        C860   1.406       .  A
C859        C864   1.408       .  A
C860        C861   1.407       .  A
C860       Br871   1.933   1_565  S
C861        C862   1.422       .  A
C861       Br867   1.937   1_565  S
C862        C863   1.416       .  A
C863        C864   1.413       .  A
C863       Br872   1.920       .  S
C864       Br868   1.931       .  S
C873        C874   1.417       .  A
C873        C878   1.419       .  A
C874        C875   1.412       .  A
C874       Br886   1.931       .  S
C875        C876   1.408       .  A
C875       Br890   1.930       .  S
C876        C877   1.406       .  A
C876        C879   1.487       .  S
C877        C878   1.407       .  A
C877       Br885   1.933       .  S
C878       Br889   1.934       .  S
C879        C880   1.406       .  A
C879        C884   1.404       .  A
C880        C881   1.411       .  A
C880       Br891   1.932       .  S
C881        C882   1.420       .  A
C881       Br887   1.920       .  S
C882        C883   1.417       .  A
C883        C884   1.407       .  A
C883       Br892   1.922   1_556  S
C884       Br888   1.932   1_556  S
C893        C894   1.418       .  A
C893        C898   1.413       .  A
C894        C895   1.404       .  A
C894       Br906   1.938       .  S
C895        C896   1.406       .  A
C895       Br910   1.933       .  S
C896        C897   1.408       .  A
C896        C899   1.484       .  S
C897        C898   1.411       .  A
C897       Br905   1.929       .  S
C898       Br909   1.921       .  S
C899        C900   1.407       .  A
C899        C904   1.408       .  A
C900        C901   1.411       .  A
C900       Br911   1.929       .  S
C901        C902   1.417       .  A
C901       Br907   1.929       .  S
C902        C903   1.413       .  A
C903        C904   1.405       .  A
C903       Br912   1.932       .  S
C904       Br908   1.932       .  S
C913        C914   1.421       .  A
C913        C918   1.416       .  A
C914        C915   1.406       .  A
C914       Br926   1.936   1_565  S
C915        C916   1.405       .  A
C915       Br930   1.934   1_565  S
C916        C917   1.405       .  A
C916        C919   1.484       .  S
C917        C918   1.410       .  A
C917       Br925   1.932       .  S
C918       Br929   1.916       .  S
C919        C920   1.409       .  A
C919        C924   1.407       .  A
C920        C921   1.404       .  A
C920       Br931   1.932       .  S
C921        C922   1.414       .  A
C921       Br927   1.933       .  S
C922        C923   1.415       .  A
C923        C924   1.409       .  A
C923       Br932   1.929       .  S
C924       Br928   1.929       .  S
C933        C934   1.416       .  A
C933        C938   1.415       .  A
C934        C935   1.412       .  A
C934       Br946   1.929       .  S
C935        C936   1.408       .  A
C935       Br950   1.929       .  S
C936        C937   1.410       .  A
C936        C939   1.491       .  S
C937        C938   1.409       .  A
C937       Br945   1.932       .  S
C938       Br949   1.932       .  S
C939        C940   1.405       .  A
C939        C944   1.408       .  A
C940        C941   1.407       .  A
C940       Br951   1.933       .  S
C941        C942   1.422       .  A
C941       Br947   1.937       .  S
C942        C943   1.417       .  A
C943        C944   1.414       .  A
C943       Br952   1.919   1_565  S
C944       Br948   1.930   1_565  S
C953        C954   1.415       .  A
C953        C958   1.417       .  A
C954        C955   1.407       .  A
C954       Br966   1.933       .  S
C955        C956   1.410       .  A
C955       Br970   1.934       .  S
C956        C957   1.407       .  A
C956        C959   1.488       .  S
C957        C958   1.411       .  A
C957       Br965   1.929       .  S
C958       Br969   1.930       .  S
C959        C960   1.406       .  A
C959        C964   1.405       .  A
C960        C961   1.410       .  A
C960       Br971   1.933       .  S
C961        C962   1.416       .  A
C961       Br967   1.920       .  S
C962        C963   1.422   1_565  A
C963        C964   1.407   1_545  A
C963       Br972   1.935       .  S
C964       Br968   1.932   1_565  S
C973        C974   1.413       .  A
C973        C978   1.415       .  A
C974        C975   1.407       .  A
C974       Br986   1.931       .  S
C975        C976   1.408       .  A
C975       Br990   1.930       .  S
C976        C977   1.409       .  A
C976        C979   1.487       .  S
C977        C978   1.410       .  A
C977       Br985   1.930       .  S
C978       Br989   1.930       .  S
C979        C980   1.408       .  A
C979        C984   1.409       .  A
C980        C981   1.408       .  A
C980       Br991   1.930       .  S
C981        C982   1.414       .  A
C981       Br987   1.930       .  S
C982        C983   1.413       .  A
C983        C984   1.409       .  A
C983       Br992   1.930       .  S
C984       Br988   1.930       .  S
C993        C994   1.412       .  A
C993        C998   1.419       .  A
C994        C995   1.410       .  A
C994      Br1006   1.923       .  S
C995        C996   1.409       .  A
C995      Br1010   1.929       .  S
C996        C997   1.405       .  A
C996        C999   1.483       .  S
C997        C998   1.403       .  A
C997      Br1005   1.933   1_556  S
C998      Br1009   1.938   1_556  S
C999       C1000   1.411       .  A
C999       C1004   1.409       .  A
C1000      C1001   1.404       .  A
C1000     Br1011   1.933       .  S
C1001      C1002   1.408       .  A
C1001     Br1007   1.930       .  S
C1002      C1003   1.412       .  A
C1003      C1004   1.409       .  A
C1003     Br1012   1.929   1_556  S
C1004     Br1008   1.929   1_556  S
C1013      C1014   1.412       .  A
C1013      C1018   1.416       .  A
C1014      C1015   1.407       .  A
C1014     Br1026   1.932       .  S
C1015      C1016   1.410       .  A
C1015     Br1030   1.931       .  S
C1016      C1017   1.407       .  A
C1016      C1019   1.487       .  S
C1017      C1018   1.409       .  A
C1017     Br1025   1.930       .  S
C1018     Br1029   1.930       .  S
C1019      C1020   1.406       .  A
C1019      C1024   1.408       .  A
C1020      C1021   1.404       .  A
C1020     Br1031   1.935       .  S
C1021      C1022   1.420       .  A
C1021     Br1027   1.938       .  S
C1022      C1023   1.413       .  A
C1023      C1024   1.413       .  A
C1023     Br1032   1.920       .  S
C1024     Br1028   1.929       .  S
C1033      C1034   1.412   1_556  A
C1033      C1038   1.417       .  A
C1034      C1035   1.411       .  A
C1034     Br1046   1.923       .  S
C1035      C1036   1.408   1_554  A
C1035     Br1050   1.928       .  S
C1036      C1037   1.406       .  A
C1036      C1039   1.483       .  S
C1037      C1038   1.402       .  A
C1037     Br1045   1.932       .  S
C1038     Br1049   1.938       .  S
C1039      C1040   1.409   1_556  A
C1039      C1044   1.407       .  A
C1040      C1041   1.404       .  A
C1040     Br1051   1.934       .  S
C1041      C1042   1.412   1_554  A
C1041     Br1047   1.932       .  S
C1042      C1043   1.415       .  A
C1043      C1044   1.411       .  A
C1043     Br1052   1.928       .  S
C1044     Br1048   1.928       .  S
C1053      C1054   1.416   1_556  A
C1053      C1058   1.419       .  A
C1054      C1055   1.406   1_554  A
C1054     Br1066   1.933       .  S
C1055      C1056   1.409       .  A
C1055     Br1070   1.934   1_556  S
C1056      C1057   1.406       .  A
C1056      C1059   1.485       .  S
C1057      C1058   1.410       .  A
C1057     Br1065   1.930       .  S
C1058     Br1069   1.930       .  S
C1059      C1060   1.406       .  A
C1059      C1064   1.408       .  A
C1060      C1061   1.404       .  A
C1060     Br1071   1.934       .  S
C1061      C1062   1.420       .  A
C1061     Br1067   1.938       .  S
C1062      C1063   1.413       .  A
C1063      C1064   1.410       .  A
C1063     Br1072   1.921   1_556  S
C1064     Br1068   1.929   1_556  S
C1073      C1074   1.415   1_556  A
C1073      C1078   1.415       .  A
C1074      C1075   1.410       .  A
C1074     Br1086   1.931       .  S
C1075      C1076   1.409   1_554  A
C1075     Br1090   1.930       .  S
C1076      C1077   1.409       .  A
C1076      C1079   1.491       .  S
C1077      C1078   1.410       .  A
C1077     Br1085   1.930       .  S
C1078     Br1089   1.931       .  S
C1079      C1080   1.410       .  A
C1079      C1084   1.410   1_556  A
C1080      C1081   1.409       .  A
C1080     Br1091   1.930       .  S
C1081      C1082   1.412       .  A
C1081     Br1087   1.930       .  S
C1082      C1083   1.412   1_556  A
C1083      C1084   1.410       .  A
C1083     Br1092   1.929       .  S
C1084     Br1088   1.930       .  S
