geometry optimzed in LAMMPS
_audit_creation_date              2020-11-30 
_audit_creation_method            'lammps2cif' 
_symmetry_space_group_name_H-M    'P1' 
_symmetry_Int_Tables_number       1 
_symmetry_cell_setting            triclinic 
loop_ 
_symmetry_equiv_pos_as_xyz 
  x,y,z 
_cell_length_a                    32.21146624 
_cell_length_b                    32.43305542184642 
_cell_length_c                    32.35180435801648 
_cell_angle_alpha                 89.72506857230474 
_cell_angle_beta                  90.01845618195449 
_cell_angle_gamma                 90.49378712623074 
loop_ 
_atom_site_label 
_atom_site_type_symbol 
_atom_site_fract_x 
_atom_site_fract_y 
_atom_site_fract_z 
_atom_site_charge 
O1          O  0.53701695  0.54367366  0.04793929    -0.71000
O2          O  0.45164232  0.45812036  0.04117436    -0.71200
O3          O  0.45598699  0.54160882  0.02550655    -0.71100
O4          O  0.53233884  0.45995225  0.06053275    -0.71100
O5          O  0.51838558  0.47406091  0.12450496    -0.71100
O6          O  0.43555868  0.55163868  0.08857509    -0.71100
O7          O  0.43765309  0.46965455  0.10568288    -0.71000
O8          O  0.51595201  0.55656567  0.11023913    -0.71200
V9          V  0.49377956  0.50127497  0.04484658     1.35200
V10         V  0.47721757  0.51271324  0.10591976     1.35200
C11         C  0.54030754  0.56506734  0.08083719     0.78200
C12         C  0.43169953  0.44810707  0.07380025     0.78300
C13         C  0.43306912  0.56094123  0.05046514     0.78100
C14         C  0.53872354  0.45293714  0.09830176     0.78100
O15         O  0.54519340  0.94184813  0.51294554    -0.71000
O16         O  0.46595163  0.98098120  0.59026518    -0.71200
O17         O  0.46173942  0.95016065  0.51306257    -0.71100
O18         O  0.54963552  0.97570944  0.59079531    -0.71100
O19         O  0.55492716  0.03620260  0.56221233    -0.71100
O20         O  0.46742023  0.01168479  0.48681282    -0.71100
O21         O  0.47177197  0.04249270  0.56388514    -0.71000
O22         O  0.55069856  0.00234190  0.48437948    -0.71200
V23         V  0.50595926  0.96329831  0.55111802     1.35200
V24         V  0.51133554  0.02196952  0.52496784     1.35200
C25         C  0.56026104  0.96437332  0.48449329     0.78200
C26         C  0.45504308  0.01816921  0.59017002     0.78300
C27         C  0.44936135  0.97707560  0.48702945     0.78100
C28         C  0.56626534  0.01147610  0.59042807     0.78100
O29         O  0.99800894  0.54100956  0.60791036    -0.71000
O30         O  0.98465772  0.45197237  0.52924922    -0.71200
O31         O  0.00557854  0.45782913  0.61194450    -0.71100
O32         O  0.97627870  0.53496791  0.52693626    -0.71100
O33         O  0.04033521  0.53858653  0.50616490    -0.71100
O34         O  0.07063789  0.46829344  0.59747556    -0.71100
O35         O  0.05066525  0.45675860  0.51648222    -0.71000
O36         O  0.06112282  0.54980778  0.58593793    -0.71200
V37         V  0.99224960  0.49648254  0.56866715     1.35200
V38         V  0.05436840  0.50299786  0.55190303     1.35200
C39         C  0.03213994  0.56096441  0.60960518     0.78200
C40         C  0.01595212  0.43975434  0.50881078     0.78300
C41         C  0.04334084  0.45129077  0.62050786     0.78100
C42         C  0.00293528  0.54971779  0.50192394     0.78100
N43         N  0.40496637  0.41181740  0.07706743    -0.02700
C44         C  0.42167275  0.38177041  0.10178982    -0.00100
C45         C  0.40227667  0.38210132  0.14037728    -0.23000
C46         C  0.36795457  0.40571394  0.13633469    -0.23200
C47         C  0.36802294  0.41964915  0.09612555    -0.00200
H48         H  0.40619066  0.36092611  0.16590509     0.13600
H49         H  0.34173484  0.40522505  0.15728923     0.13600
N50         N  0.40535258  0.59252210  0.03483799    -0.02700
C51         C  0.42282948  0.61905347  0.00646103    -0.00100
C52         C  0.40619090  0.61116059  0.96754075    -0.23000
C53         C  0.37333582  0.58517706  0.97322524    -0.23200
C54         C  0.37102716  0.57740342  0.01508496    -0.00200
H55         H  0.41118874  0.62803838  0.93910419     0.13600
H56         H  0.34920581  0.57954975  0.95057634     0.13600
N57         N  0.42389947  0.03247902  0.61867573    -0.02700
C58         C  0.43721716  0.05400468  0.65215363    -0.00100
C59         C  0.42644185  0.09504171  0.64672481    -0.23000
C60         C  0.39810583  0.09610195  0.61526593    -0.23200
C61         C  0.39382635  0.05591767  0.60148249    -0.00200
H62         H  0.42876799  0.11883849  0.66998648     0.13600
H63         H  0.37660706  0.12112524  0.61048093     0.13600
O64         O  0.38194950  0.00334477  0.09769203    -0.71000
O65         O  0.37679235  0.00437563  0.97964493    -0.71200
O66         O  0.37959980  0.94488612  0.03857028    -0.71100
O67         O  0.37941662  0.06287294  0.03862354    -0.71100
O68         O  0.44611265  0.06280869  0.02986268    -0.71100
O69         O  0.44685149  0.94648230  0.04203069    -0.71100
O70         O  0.44394594  0.99921308  0.97736763    -0.71000
O71         O  0.44888451  0.01047174  0.09465892    -0.71200
V72         V  0.38058598  0.00388304  0.03860340     1.35200
V73         V  0.44515355  0.00466874  0.03601377     1.35200
C74         C  0.41635871  0.00722690  0.11633659     0.78200
C75         C  0.40966642  0.00164488  0.95845380     0.78300
C76         C  0.41354106  0.92563005  0.04154203     0.78100
C77         C  0.41293884  0.08296413  0.03311484     0.78100
N78         N  0.41618072  0.96829592  0.45798371    -0.02700
C79         C  0.42676611  0.95511172  0.41952034    -0.00100
C80         C  0.41175543  0.91526282  0.41452486    -0.23000
C81         C  0.38574932  0.90712113  0.44684954    -0.23200
C82         C  0.38545396  0.94227232  0.47090827    -0.00200
H83         H  0.41010315  0.89874487  0.38556719     0.13600
H84         H  0.36200527  0.88335208  0.44587690     0.13600
N85         N  0.56866482  0.42206255  0.11122215    -0.02700
C86         C  0.55205179  0.38942585  0.13219092    -0.00100
C87         C  0.55485988  0.39736384  0.17408371    -0.23000
C88         C  0.58530532  0.42703735  0.17785678    -0.23200
C89         C  0.59787095  0.43662349  0.13775678    -0.00200
H90         H  0.54369720  0.37788443  0.19899947     0.13600
H91         H  0.60146234  0.43396956  0.20632556     0.13600
N92         N  0.05537901  0.42350525  0.65379407    -0.02700
C93         C  0.08016037  0.43696427  0.68580335    -0.00100
C94         C  0.11480561  0.41177937  0.68852567    -0.23000
C95         C  0.10982068  0.38079584  0.66107028    -0.23200
C96         C  0.07214272  0.38688026  0.64214232    -0.00200
H97         H  0.13688569  0.40954183  0.71343756     0.13600
H98         H  0.12777732  0.35271327  0.66107727     0.13600
O99         O  0.99144073  0.45492004  0.00865146    -0.71000
O100        O  0.97940081  0.43915320  0.12463415    -0.71200
O101        O  0.04327276  0.44237998  0.07167999    -0.71100
O102        O  0.92677455  0.45184902  0.06300129    -0.71100
O103        O  0.92050165  0.38543275  0.05849716    -0.71100
O104        O  0.03863811  0.37713557  0.05703489    -0.71100
O105        O  0.97933473  0.37277348  0.11603927    -0.71000
O106        O  0.98126488  0.38960443  0.99844325    -0.71200
V107        V  0.98497592  0.44578482  0.06653353     1.35200
V108        V  0.97981763  0.38238694  0.05748219     1.35200
C109        C  0.99028203  0.42492257  0.98374131     0.78200
C110        C  0.97830386  0.40336735  0.14026023     0.78300
C111        C  0.06082236  0.40839378  0.06529148     0.78100
C112        C  0.90368055  0.42024914  0.06343666     0.78100
N113        N  0.01331667  0.40844747  0.47654537    -0.02700
C114        C  0.03308398  0.42087240  0.44120621    -0.00100
C115        C  0.07298091  0.40512466  0.44067589    -0.23000
C116        C  0.07398571  0.37556846  0.47093919    -0.23200
C117        C  0.03362031  0.37283630  0.48590193    -0.00200
H118        H  0.09454374  0.40631104  0.41503864     0.13600
H119        H  0.09631296  0.35078074  0.47119456     0.13600
N120        N  0.99047507  0.57976010  0.47112573    -0.02700
C121        C  0.96636463  0.56690309  0.43877678    -0.00100
C122        C  0.92909109  0.58781552  0.43863212    -0.23000
C123        C  0.93190083  0.61738983  0.46824023    -0.23200
C124        C  0.97052430  0.61334638  0.48626490    -0.00200
H125        H  0.90620120  0.58767833  0.41410494     0.13600
H126        H  0.91144831  0.64358163  0.47062825     0.13600
N127        N  0.58688652  0.94613793  0.45331641    -0.02700
C128        C  0.56934562  0.92494621  0.42096471    -0.00100
C129        C  0.58465513  0.88529596  0.41958585    -0.23000
C130        C  0.61561818  0.88310185  0.44786277    -0.23200
C131        C  0.61762259  0.92094376  0.46723721    -0.00200
H132        H  0.58083069  0.86351086  0.39459184     0.13600
H133        H  0.63876487  0.85916770  0.44821037     0.13600
O134        O  0.05957585  0.99196392  0.43544262    -0.71000
O135        O  0.94184209  0.98499531  0.44143656    -0.71200
O136        O  0.99727312  0.04746467  0.43608238    -0.71100
O137        O  0.00400354  0.93003683  0.44127735    -0.71100
O138        O  0.01154866  0.93387420  0.50781696    -0.71100
O139        O  0.99652718  0.04961879  0.50323954    -0.71100
O140        O  0.94523772  0.98397803  0.50835364    -0.71000
O141        O  0.06237610  0.99920751  0.50207650    -0.71200
V142        V  0.00069679  0.98877616  0.43977743     1.35200
V143        V  0.00379372  0.99163994  0.50406966     1.35200
C144        C  0.08108382  0.99681096  0.46779510     0.78200
C145        C  0.92336305  0.98257016  0.47582297     0.78300
C146        C  0.99522358  0.06834910  0.46899104     0.78100
C147        C  0.01020785  0.91212089  0.47556716     0.78100
N148        N  0.57238785  0.59620361  0.08729794    -0.02700
C149        C  0.56075404  0.63277876  0.10514092    -0.00100
C150        C  0.57966095  0.63725717  0.14342345    -0.23000
C151        C  0.60768528  0.60687686  0.14703232    -0.23200
C152        C  0.60438415  0.58320973  0.11187130    -0.00200
H153        H  0.58010900  0.66424112  0.16295202     0.13600
H154        H  0.63290245  0.60747207  0.16908721     0.13600
N155        N  0.03998289  0.59353501  0.63934561    -0.02700
C156        C  0.06082690  0.58019079  0.67352542    -0.00100
C157        C  0.10171947  0.59427070  0.67199108    -0.23000
C158        C  0.10356766  0.62306399  0.64149464    -0.23200
C159        C  0.06409133  0.62550736  0.62496123    -0.00200
H160        H  0.12552528  0.59172803  0.69534383     0.13600
H161        H  0.12803275  0.64602986  0.63930339     0.13600
N162        N  0.59736205  0.02477465  0.62055084    -0.02700
C163        C  0.58592241  0.05622717  0.64656911    -0.00100
C164        C  0.60640702  0.09226600  0.63564880    -0.23000
C165        C  0.63622781  0.08167380  0.60796046    -0.23200
C166        C  0.63284980  0.03942603  0.60249305    -0.00200
H167        H  0.60691854  0.12069006  0.65308307     0.13600
H168        H  0.66274019  0.10099509  0.60034997     0.13600
O169        O  0.60041085  0.00371234  0.09776884    -0.71000
O170        O  0.60300539  0.02019156  0.98023391    -0.71200
O171        O  0.60024303  0.07014819  0.04646154    -0.71100
O172        O  0.60313251  0.95310922  0.03211828    -0.71100
O173        O  0.53592990  0.95131246  0.02879066    -0.71100
O174        O  0.53300651  0.06750887  0.04626721    -0.71100
O175        O  0.53568379  0.01863000  0.97880196    -0.71000
O176        O  0.53315462  0.00027696  0.09560269    -0.71200
V177        V  0.60042924  0.01169264  0.03897678     1.35200
V178        V  0.53579247  0.00953240  0.03729030     1.35200
C179        C  0.56621533  0.99885235  0.11659593     0.78200
C180        C  0.56969495  0.02268144  0.95947155     0.78300
C181        C  0.56597635  0.08876083  0.04943836     0.78100
C182        C  0.56991301  0.93202907  0.02905206     0.78100
O183        O  0.01683256  0.94999186  0.66932539    -0.71000
O184        O  0.01044906  0.06728084  0.67357628    -0.71200
O185        O  0.95473214  0.00490508  0.67830427    -0.71100
O186        O  0.07190993  0.01293410  0.66489785    -0.71100
O187        O  0.06412576  0.01099589  0.59816874    -0.71100
O188        O  0.94717933  0.01082118  0.61173925    -0.71100
O189        O  0.00588701  0.06928983  0.60661745    -0.71000
O190        O  0.00516394  0.95209219  0.60328418    -0.71200
V191        V  0.01326785  0.00871597  0.67028989     1.35200
V192        V  0.00574109  0.01071236  0.60624740     1.35200
C193        C  0.01164430  0.93095577  0.63557611     0.78200
C194        C  0.00760153  0.08828004  0.64063895     0.78300
C195        C  0.93110394  0.00775034  0.64723115     0.78100
C196        C  0.08783159  0.01307473  0.62921749     0.78100
O197        O  0.03925203  0.61430098  0.05365100    -0.71000
O198        O  0.92152678  0.60362968  0.05368874    -0.71200
O199        O  0.98052274  0.60417538  0.11257466    -0.71100
O200        O  0.98032988  0.61340962  0.99474909    -0.71100
O201        O  0.98184668  0.54673704  0.99032604    -0.71100
O202        O  0.99012888  0.53819581  0.10758057    -0.71100
O203        O  0.92699338  0.53704618  0.05191814    -0.71000
O204        O  0.04445272  0.54812528  0.04499694    -0.71200
V205        V  0.98046648  0.60762309  0.05357478     1.35200
V206        V  0.98569729  0.54379045  0.04886543     1.35200
C207        C  0.06176574  0.58306760  0.04830286     0.78200
C208        C  0.90415454  0.56850485  0.05331208     0.78300
C209        C  0.98617060  0.56969365  0.13018256     0.78100
C210        C  0.98068243  0.58142890  0.97241261     0.78100
C211        C  0.67219553  0.01555174  0.59862480    -0.11200
C212        C  0.68328597  0.98528456  0.62802039     0.04300
C213        C  0.72476576  0.98266856  0.64128982    -0.11800
C214        C  0.75603480  0.00676862  0.62232579     0.19100
C215        C  0.74583927  0.02769185  0.58527070    -0.08800
C216        C  0.70417103  0.03289877  0.57444399    -0.01800
H217        H  0.73230076  0.96226998  0.66673258     0.05700
C218        C  0.79916392  0.00848462  0.63956418     0.21100
H219        H  0.69659826  0.05354412  0.54917991     0.10800
C220        C  0.81950735  0.97209443  0.65158218    -0.15100
C221        C  0.86263975  0.97179348  0.65737624     0.03800
C222        C  0.88574012  0.00828094  0.65155292    -0.10400
C223        C  0.86488693  0.04553784  0.64575938    -0.00500
C224        C  0.82167413  0.04607278  0.64170661    -0.05600
H225        H  0.80248428  0.94326492  0.65377692     0.06800
H226        H  0.88231896  0.07421087  0.64379555     0.10200
Br227      Br  0.78735184  0.05000404  0.54848054    -0.05300
Br228      Br  0.64432172  0.94471449  0.64780219    -0.02300
Br229      Br  0.88917066  0.92063103  0.67026703     0.00600
Br230      Br  0.79491410  0.09886758  0.64092649    -0.03800
C231        C  0.57889162  0.05058819  0.69225701    -0.11200
C232        C  0.55189266  0.07637760  0.71489580     0.04300
C233        C  0.54972920  0.07359709  0.75834168    -0.11800
C234        C  0.57577688  0.04694723  0.78050072     0.19100
C235        C  0.60403423  0.02270664  0.75827229    -0.08800
C236        C  0.60533221  0.02478357  0.71497735    -0.01800
H237        H  0.52824666  0.09304470  0.77499387     0.05700
C238        C  0.57275094  0.04364909  0.82651907     0.21100
H239        H  0.62945770  0.00783137  0.69907653     0.10800
C240        C  0.54718849  0.01298800  0.84370104    -0.15100
C241        C  0.54583932  0.00617284  0.88649868     0.03800
C242        C  0.57034402  0.03004542  0.91369342    -0.10400
C243        C  0.59587214  0.06114903  0.89647912    -0.00500
C244        C  0.59699657  0.06819434  0.85338130    -0.05600
H245        H  0.52908714  0.99328014  0.82355497     0.06800
H246        H  0.61487011  0.08012581  0.91657709     0.10200
Br247      Br  0.64301311  0.98789389  0.78610970    -0.05300
Br248      Br  0.51958392  0.11798678  0.68826976    -0.02300
Br249      Br  0.51321755  0.96077892  0.90531831     0.00600
Br250      Br  0.63249096  0.11108444  0.83229688    -0.03800
C251        C  0.98216592  0.58427389  0.92655376    -0.11200
C252        C  0.96710538  0.55215079  0.90110226     0.04300
C253        C  0.97568543  0.55231036  0.85885840    -0.11800
C254        C  0.99859894  0.58428463  0.84077396     0.19100
C255        C  0.01045319  0.61835012  0.86504197    -0.08800
C256        C  0.00226118  0.61814257  0.90764726    -0.01800
H257        H  0.96550318  0.52660404  0.84022390     0.05700
C258        C  0.01287724  0.57941416  0.79768680     0.21100
H259        H  0.01336268  0.64363330  0.92625259     0.10800
C260        C  0.98480777  0.58272760  0.76477070    -0.15100
C261        C  0.99822769  0.57942464  0.72359081     0.03800
C262        C  0.04080224  0.57212070  0.71490075    -0.10400
C263        C  0.06709745  0.56372558  0.74876769    -0.00500
C264        C  0.05406944  0.56869995  0.78942120    -0.05600
H265        H  0.95246419  0.58900968  0.77115497     0.06800
H266        H  0.09901802  0.55529876  0.74408004     0.10200
Br267      Br  0.03879832  0.66502689  0.84130882    -0.05300
Br268      Br  0.93340191  0.50768094  0.92106542    -0.02300
Br269      Br  0.95600824  0.58541710  0.68227932     0.00600
Br270      Br  0.09464015  0.56256193  0.83247293    -0.03800
C271        C  0.01450470  0.88522661  0.63377403    -0.11200
C272        C  0.99022727  0.86134623  0.60624730     0.04300
C273        C  0.99576804  0.81856662  0.60408695    -0.11800
C274        C  0.02518350  0.79862146  0.62890042     0.19100
C275        C  0.04862914  0.82213773  0.65714784    -0.08800
C276        C  0.04309941  0.86493652  0.65950414    -0.01800
H277        H  0.97707493  0.80082361  0.58274859     0.05700
C278        C  0.03162377  0.75351140  0.62423506     0.21100
H279        H  0.06189103  0.88254089  0.68099977     0.10800
C280        C  0.06522279  0.73955411  0.60082203    -0.15100
C281        C  0.07232434  0.69738695  0.59554791     0.03800
C282        C  0.04793791  0.66792335  0.61715501    -0.10400
C283        C  0.01361271  0.68199816  0.63984593    -0.00500
C284        C  0.00501899  0.72427328  0.64292991    -0.05600
H285        H  0.08676452  0.76149261  0.58745810     0.06800
H286        H  0.99490020  0.66051103  0.65736562     0.10200
Br287      Br  0.08821281  0.79693786  0.69340383    -0.05300
Br288      Br  0.94748822  0.88472287  0.57232800    -0.02300
Br289      Br  0.11653482  0.68177455  0.55915325     0.00600
Br290      Br  0.95894029  0.74097430  0.67617011    -0.03800
C291        C  0.64229477  0.56263953  0.09642391    -0.11200
C292        C  0.67000603  0.54317876  0.12425202     0.04300
C293        C  0.71173818  0.53881388  0.11357615    -0.11800
C294        C  0.72662017  0.55341386  0.07554586     0.19100
C295        C  0.69841793  0.56877016  0.04618629    -0.08800
C296        C  0.65648369  0.57273702  0.05657615    -0.01800
H297        H  0.73318655  0.52637949  0.13610546     0.05700
C298        C  0.77189343  0.55725826  0.06926061     0.21100
H299        H  0.63603024  0.58769590  0.03484154     0.10800
C300        C  0.79210174  0.53102210  0.04175613    -0.15100
C301        C  0.83500590  0.53441051  0.03543540     0.03800
C302        C  0.85840979  0.56466429  0.05674550    -0.10400
C303        C  0.83769318  0.59149261  0.08347133    -0.00500
C304        C  0.79498835  0.58776620  0.09014207    -0.05600
H305        H  0.77442185  0.50775794  0.02526786     0.06800
H306        H  0.85492770  0.61508423  0.09990455     0.10200
Br307      Br  0.71671945  0.59024039  0.99387764    -0.05300
Br308      Br  0.65391983  0.52565328  0.17892822    -0.02300
Br309      Br  0.85887916  0.49819697  0.99585610     0.00600
Br310      Br  0.76944079  0.62559945  0.12759806    -0.03800
C311        C  0.54924665  0.67215217  0.08292736    -0.11200
C312        C  0.56046556  0.68149819  0.04155814     0.04300
C313        C  0.56413781  0.72301736  0.02854021    -0.11800
C314        C  0.55798663  0.75563953  0.05635797     0.19100
C315        C  0.54295937  0.74625686  0.09614246    -0.08800
C316        C  0.53644528  0.70529059  0.10792902    -0.01800
H317        H  0.57376365  0.72983665  0.99715382     0.05700
C318        C  0.56591255  0.79928824  0.04364184     0.21100
H319        H  0.52515222  0.69941715  0.13894141     0.10800
C320        C  0.53803023  0.81863541  0.01688533    -0.15100
C321        C  0.53966449  0.86135994  0.01007451     0.03800
C322        C  0.57060053  0.88587411  0.02938090    -0.10400
C323        C  0.60087492  0.86566743  0.05326323    -0.00500
C324        C  0.59866048  0.82292937  0.06055613    -0.05600
H325        H  0.51348374  0.80063357  0.00282130     0.06800
H326        H  0.62526047  0.88342104  0.06809210     0.10200
Br327      Br  0.53448247  0.78767673  0.13754543    -0.05300
Br328      Br  0.57194327  0.63985891  0.00155437    -0.02300
Br329      Br  0.49823605  0.88355773  0.97433857     0.00600
Br330      Br  0.64055432  0.79820341  0.09449624    -0.03800
C331        C  0.87750751  0.97699568  0.47815293    -0.11200
C332        C  0.85054635  0.98784828  0.44542755     0.04300
C333        C  0.80782730  0.97995996  0.44874200    -0.11800
C334        C  0.79028238  0.96274056  0.48476016     0.19100
C335        C  0.81762086  0.95111261  0.51710403    -0.08800
C336        C  0.86031176  0.95882790  0.51373184    -0.01800
H337        H  0.78821436  0.98709875  0.42255492     0.05700
C338        C  0.74413757  0.95572059  0.48691451     0.21100
H339        H  0.88034666  0.94976176  0.53903746     0.10800
C340        C  0.72877813  0.91729273  0.50050374    -0.15100
C341        C  0.68632559  0.90869935  0.50196852     0.03800
C342        C  0.65799182  0.93623139  0.48378260    -0.10400
C343        C  0.67247035  0.97542222  0.47180487    -0.00500
C344        C  0.71483646  0.98568610  0.47390914    -0.05600
H345        H  0.74975898  0.89286811  0.50894916     0.06800
H346        H  0.65119290  0.99741038  0.45834314     0.10200
Br347      Br  0.79989910  0.92412368  0.56690896    -0.05300
Br348      Br  0.86913124  0.01526481  0.39594189    -0.02300
Br349      Br  0.66894452  0.85861876  0.52912801     0.00600
Br350      Br  0.72964943  0.04066780  0.45666836    -0.03800
C351        C  0.56465576  0.99083658  0.16187033    -0.11200
C352        C  0.56136175  0.02303378  0.19071751     0.04300
C353        C  0.55837862  0.01429460  0.23318599    -0.11800
C354        C  0.56055819  0.97362404  0.24823137     0.19100
C355        C  0.56430973  0.94130045  0.21915400    -0.08800
C356        C  0.56579640  0.95010086  0.17656062    -0.01800
H357        H  0.55515792  0.03955617  0.25469002     0.05700
C358        C  0.55966043  0.96560082  0.29399697     0.21100
H359        H  0.56856962  0.92498509  0.15478215     0.10800
C360        C  0.53038742  0.93770325  0.31046636    -0.15100
C361        C  0.53170612  0.92563024  0.35213168     0.03800
C362        C  0.56083216  0.94365452  0.37954427    -0.10400
C363        C  0.58860595  0.97339580  0.36359709    -0.00500
C364        C  0.58862538  0.98397447  0.32137923    -0.05600
H365        H  0.50749361  0.92366921  0.29029938     0.06800
H366        H  0.61238523  0.98636746  0.38346056     0.10200
Br367      Br  0.57016398  0.88466993  0.23559030    -0.05300
Br368      Br  0.56312677  0.07956454  0.17386698    -0.02300
Br369      Br  0.49583525  0.88116249  0.36871966     0.00600
Br370      Br  0.63218321  0.02002810  0.30233059    -0.03800
C371        C  0.99243422  0.65116957  0.50050101    -0.11200
C372        C  0.97214530  0.67943610  0.52645070     0.04300
C373        C  0.98280116  0.72130767  0.52470866    -0.11800
C374        C  0.01405678  0.73555220  0.49792081     0.19100
C375        C  0.03805182  0.70669578  0.47636565    -0.08800
C376        C  0.02745673  0.66470585  0.47816730    -0.01800
H377        H  0.96452593  0.74307720  0.54199001     0.05700
C378        C  0.01671976  0.78029616  0.48862508     0.21100
H379        H  0.04389698  0.64346054  0.45852379     0.10800
C380        C  0.04428625  0.80561588  0.51050637    -0.15100
C381        C  0.04334104  0.84855366  0.50606421     0.03800
C382        C  0.01492991  0.86683684  0.47835972    -0.10400
C383        C  0.98933553  0.84121461  0.45426574    -0.00500
C384        C  0.98988734  0.79829996  0.45943114    -0.05600
H385        H  0.06631836  0.79210738  0.53131253     0.06800
H386        H  0.96773760  0.85465352  0.43246282     0.10200
Br387      Br  0.08208797  0.72378836  0.44018946    -0.05300
Br388      Br  0.92688758  0.66293304  0.56155055    -0.02300
Br389      Br  0.08239828  0.88041225  0.53784087     0.00600
Br390      Br  0.95319067  0.76523033  0.42634092    -0.03800
C391        C  0.98849117  0.56644741  0.17606030    -0.11200
C392        C  0.95687988  0.58201589  0.20160351     0.04300
C393        C  0.96015691  0.57892987  0.24478569    -0.11800
C394        C  0.99516061  0.56141269  0.26372732     0.19100
C395        C  0.02714641  0.54635281  0.23817754    -0.08800
C396        C  0.02327439  0.54830677  0.19483997    -0.01800
H397        H  0.93508716  0.59026594  0.26381378     0.05700
C398        C  0.99556311  0.55711268  0.30986150     0.21100
H399        H  0.04800951  0.53643465  0.17570676     0.10800
C400        C  0.96696434  0.53001437  0.32840121    -0.15100
C401        C  0.96057886  0.52928592  0.37124504     0.03800
C402        C  0.98312172  0.55622361  0.39714553    -0.10400
C403        C  0.01360324  0.58193159  0.37890773    -0.00500
C404        C  0.01958616  0.58287389  0.33572016    -0.05600
H405        H  0.94793624  0.51063936  0.30899289     0.06800
H406        H  0.03021870  0.60403442  0.39776874     0.10200
Br407      Br  0.07683006  0.52321927  0.26068439    -0.05300
Br408      Br  0.90754483  0.60595844  0.17903203    -0.02300
Br409      Br  0.91766231  0.49379364  0.39268781     0.00600
Br410      Br  0.05686418  0.62350895  0.31318115    -0.03800
C411        C  0.01322882  0.33168233  0.47888217    -0.11200
C412        C  0.99000942  0.31112867  0.50954187     0.04300
C413        C  0.98140983  0.26866566  0.50569957    -0.11800
C414        C  0.99454469  0.24672065  0.47070784     0.19100
C415        C  0.01130743  0.26892265  0.43713212    -0.08800
C416        C  0.02075613  0.31075435  0.44145878    -0.01800
H417        H  0.96555099  0.25262561  0.53041076     0.05700
C418        C  0.99411482  0.20083012  0.47065768     0.21100
H419        H  0.03588782  0.32655940  0.41596340     0.10800
C420        C  0.95638376  0.17872439  0.47069372    -0.15100
C421        C  0.95598762  0.13536797  0.46953753     0.03800
C422        C  0.99367962  0.11370885  0.46796078    -0.10400
C423        C  0.03120334  0.13568608  0.46863270    -0.00500
C424        C  0.03173300  0.17873151  0.47035569    -0.05600
H425        H  0.92728401  0.19518075  0.47157510     0.06800
H426        H  0.06032550  0.11919374  0.46859767     0.10200
Br427      Br  0.02306787  0.24312047  0.38517589    -0.05300
Br428      Br  0.96897771  0.34016806  0.55612999    -0.02300
Br429      Br  0.90363233  0.10676983  0.47142561     0.00600
Br430      Br  0.08489499  0.20564316  0.47406114    -0.03800
C431        C  0.97578150  0.39854217  0.18580709    -0.11200
C432        C  0.00581295  0.37683499  0.20869311     0.04300
C433        C  0.00722378  0.38078064  0.25189416    -0.11800
C434        C  0.97772067  0.40436405  0.27314744     0.19100
C435        C  0.94497090  0.42207331  0.25050700    -0.08800
C436        C  0.94490627  0.41994896  0.20726650    -0.01800
H437        H  0.03213931  0.36625690  0.26894216     0.05700
C438        C  0.98511130  0.41390715  0.31755661     0.21100
H439        H  0.92069580  0.43540986  0.19025842     0.10800
C440        C  0.01665866  0.44224265  0.32734507    -0.15100
C441        C  0.02960139  0.44824579  0.36820876     0.03800
C442        C  0.01145652  0.42499302  0.40055218    -0.10400
C443        C  0.97771005  0.39870761  0.39110541    -0.00500
C444        C  0.96466167  0.39291639  0.34999046    -0.05600
H445        H  0.03226381  0.45881313  0.30273530     0.06800
H446        H  0.96332593  0.38036608  0.41530495     0.10200
Br447      Br  0.89955972  0.44936408  0.27660806    -0.05300
Br448      Br  0.04685556  0.34341445  0.18247002    -0.02300
Br449      Br  0.07351170  0.48737501  0.37811584     0.00600
Br450      Br  0.92144043  0.35345422  0.33920973    -0.03800
C451        C  0.06380617  0.45489445  0.72575994    -0.11200
C452        C  0.09072715  0.46271559  0.75965511     0.04300
C453        C  0.07596165  0.45943224  0.80031500    -0.11800
C454        C  0.03351224  0.45352598  0.80900066     0.19100
C455        C  0.00568229  0.45598487  0.77502539    -0.08800
C456        C  0.02091960  0.45539122  0.73403857    -0.01800
H457        H  0.09825842  0.46125571  0.82529096     0.05700
C458        C  0.02013354  0.44620044  0.85342721     0.21100
H459        H  0.99907777  0.45413471  0.70869109     0.10800
C460        C  0.03903536  0.46930971  0.88517575    -0.15100
C461        C  0.03137093  0.46101076  0.92710426     0.03800
C462        C  0.00128974  0.43131815  0.93904758    -0.10400
C463        C  0.98330839  0.40700167  0.90779927    -0.00500
C464        C  0.99351754  0.41317924  0.86570036    -0.05600
H465        H  0.06140581  0.49310206  0.87759828     0.06800
H466        H  0.96209357  0.38227899  0.91620475     0.10200
Br467      Br  0.94698380  0.46243684  0.78224469    -0.05300
Br468      Br  0.14762908  0.48028433  0.75288393    -0.02300
Br469      Br  0.06756764  0.48692535  0.96649688     0.00600
Br470      Br  0.97493786  0.37169667  0.82766316    -0.03800
C471        C  0.04849856  0.34940950  0.62936307    -0.11200
C472        C  0.01230128  0.33608298  0.65064016     0.04300
C473        C  0.00120623  0.29414112  0.65112506    -0.11800
C474        C  0.02592781  0.26493574  0.63135556     0.19100
C475        C  0.06001704  0.27838393  0.60764057    -0.08800
C476        C  0.07027073  0.32030309  0.60580937    -0.01800
H477        H  0.97444958  0.28399504  0.66885383     0.05700
C478        C  0.01753703  0.22041783  0.63755888     0.21100
H479        H  0.09829312  0.32960976  0.58960844     0.10800
C480        C  0.98857064  0.20033448  0.61227512    -0.15100
C481        C  0.98372389  0.15743168  0.61388759     0.03800
C482        C  0.00784218  0.13391549  0.64158664    -0.10400
C483        C  0.03442235  0.15450605  0.66921034    -0.00500
C484        C  0.03977826  0.19736044  0.66703149    -0.05600
H485        H  0.97011254  0.21797679  0.59084872     0.06800
H486        H  0.05237432  0.13709301  0.69144058     0.10200
Br487      Br  0.09650509  0.24006601  0.58156094    -0.05300
Br488      Br  0.97808656  0.37224345  0.68206116    -0.02300
Br489      Br  0.94228448  0.13287031  0.57908477     0.00600
Br490      Br  0.07870232  0.22304436  0.70393912    -0.03800
C491        C  0.64329240  0.43754299  0.12601833    -0.11200
C492        C  0.65754470  0.44755354  0.08558552     0.04300
C493        C  0.69973763  0.44446933  0.07557286    -0.11800
C494        C  0.72894652  0.43161731  0.10479206     0.19100
C495        C  0.71554523  0.42255110  0.14518359    -0.08800
C496        C  0.67342880  0.42507517  0.15527536    -0.01800
H497        H  0.71000467  0.45257269  0.04466178     0.05700
C498        C  0.77333434  0.42879352  0.09285013     0.21100
H499        H  0.66467475  0.41630510  0.18632341     0.10800
C500        C  0.80223373  0.45526532  0.11147193    -0.15100
C501        C  0.84444476  0.45313302  0.10194374     0.03800
C502        C  0.85873814  0.42413119  0.07268206    -0.10400
C503        C  0.82971595  0.39755863  0.05398295    -0.00500
C504        C  0.78728407  0.39994419  0.06357653    -0.05600
H505        H  0.79191173  0.47752952  0.13401127     0.06800
H506        H  0.84004538  0.37490945  0.03183556     0.10200
Br507      Br  0.75329077  0.40483776  0.18751738    -0.05300
Br508      Br  0.62288393  0.46715030  0.04192136    -0.02300
Br509      Br  0.88069171  0.48919683  0.13244646     0.00600
Br510      Br  0.74973656  0.36206723  0.03725549    -0.03800
C511        C  0.55667366  0.34602953  0.11591292    -0.11200
C512        C  0.57575331  0.31350935  0.13886550     0.04300
C513        C  0.57783176  0.27374744  0.12248734    -0.11800
C514        C  0.56439870  0.26504452  0.08244830     0.19100
C515        C  0.54910532  0.29756274  0.05791734    -0.08800
C516        C  0.54478933  0.33738054  0.07482757    -0.01800
H517        H  0.59091692  0.24918197  0.14108286     0.05700
C518        C  0.56368567  0.22099562  0.06931409     0.21100
H519        H  0.53216595  0.36174844  0.05570596     0.10800
C520        C  0.53306262  0.19522970  0.08619802    -0.15100
C521        C  0.53282962  0.15262891  0.07987230     0.03800
C522        C  0.56453313  0.13423542  0.05627197    -0.10400
C523        C  0.59571123  0.16005536  0.03939102    -0.00500
C524        C  0.59546950  0.20302734  0.04573946    -0.05600
H525        H  0.50964280  0.20846649  0.10560474     0.06800
H526        H  0.62049573  0.14677268  0.02131591     0.10200
Br527      Br  0.53497404  0.28893786  0.00106784    -0.05300
Br528      Br  0.60476926  0.31965486  0.19054359    -0.02300
Br529      Br  0.48972208  0.12170783  0.10709476     0.00600
Br530      Br  0.64008907  0.23567936  0.02357221    -0.03800
C531        C  0.12701071  0.99704485  0.46601859    -0.11200
C532        C  0.15121237  0.02162469  0.49273693     0.04300
C533        C  0.19419765  0.01596808  0.49483252    -0.11800
C534        C  0.21405962  0.98707275  0.46981984     0.19100
C535        C  0.19025850  0.96436801  0.44118712    -0.08800
C536        C  0.14711820  0.96946355  0.43944862    -0.01800
H537        H  0.21214404  0.03342378  0.51670026     0.05700
C538        C  0.25898309  0.97907240  0.47588170     0.21100
H539        H  0.12908217  0.95061037  0.41838504     0.10800
C540        C  0.27104233  0.94143795  0.49338593    -0.15100
C541        C  0.31292368  0.93186670  0.49876149     0.03800
C542        C  0.34388779  0.95841506  0.48266143    -0.10400
C543        C  0.33187504  0.99741595  0.46765478    -0.00500
C544        C  0.28985486  0.00799493  0.46463233    -0.05600
H545        H  0.24767536  0.91891606  0.50210256     0.06800
H546        H  0.35488901  0.01862643  0.45527030     0.10200
Br547      Br  0.21531766  0.92562518  0.40437593    -0.05300
Br548      Br  0.12743827  0.06470050  0.52532871    -0.02300
Br549      Br  0.32621036  0.88175942  0.52746302     0.00600
Br550      Br  0.27618571  0.06028102  0.44058214    -0.03800
C551        C  0.42304787  0.98226276  0.38197154    -0.11200
C552        C  0.45739672  0.00182334  0.36336366     0.04300
C553        C  0.45689144  0.01090533  0.32071144    -0.11800
C554        C  0.42047655  0.00536139  0.29704084     0.19100
C555        C  0.38362251  0.99454055  0.31844148    -0.08800
C556        C  0.38539577  0.98189297  0.35986364    -0.01800
H557        H  0.48530012  0.02142390  0.30615433     0.05700
C558        C  0.42139183  0.00692015  0.25047828     0.21100
H559        H  0.35748922  0.96985035  0.37440976     0.10800
C560        C  0.40282211  0.97417122  0.22851829    -0.15100
C561        C  0.40022928  0.97441045  0.18529231     0.03800
C562        C  0.41858411  0.00666541  0.16230248    -0.10400
C563        C  0.43936972  0.03831962  0.18373016    -0.00500
C564        C  0.44017291  0.03923917  0.22729419    -0.05600
H565        H  0.38961666  0.94817888  0.24522122     0.06800
H566        H  0.45369524  0.06330919  0.16656153     0.10200
Br567      Br  0.32983671  0.99665271  0.29286992    -0.05300
Br568      Br  0.50271304  0.02142156  0.39590627    -0.02300
Br569      Br  0.37226189  0.92903355  0.15907859     0.00600
Br570      Br  0.46438034  0.08705214  0.25275920    -0.03800
C571        C  0.43055016  0.03689175  0.69488939    -0.11200
C572        C  0.45843737  0.01010444  0.71488671     0.04300
C573        C  0.45353894  0.00107249  0.75729184    -0.11800
C574        C  0.41944538  0.01619229  0.77975470     0.19100
C575        C  0.38894738  0.03859158  0.75824164    -0.08800
C576        C  0.39480405  0.04891598  0.71671473    -0.01800
H577        H  0.47650251  0.98234398  0.77271051     0.05700
C578        C  0.41663602  0.01077840  0.82561250     0.21100
H579        H  0.37119643  0.06703176  0.70140369     0.10800
C580        C  0.41272588  0.04608430  0.85030842    -0.15100
C581        C  0.40726882  0.04298181  0.89308408     0.03800
C582        C  0.40875226  0.00431271  0.91277589    -0.10400
C583        C  0.41230125  0.96875610  0.88844079    -0.00500
C584        C  0.41568662  0.97169263  0.84510461    -0.05600
H585        H  0.41280726  0.07636376  0.83602354     0.06800
H586        H  0.41270260  0.93869988  0.90317960     0.10200
Br587      Br  0.33790529  0.05516602  0.78371393    -0.05300
Br588      Br  0.50200975  0.98343092  0.68553665    -0.02300
Br589      Br  0.39574900  0.09234374  0.92307990     0.00600
Br590      Br  0.41688941  0.92159639  0.81392748    -0.03800
C591        C  0.35139727  0.03932181  0.59189903    -0.11200
C592        C  0.33599779  0.00185101  0.60899036     0.04300
C593        C  0.29311792  0.99555900  0.61301169    -0.11800
C594        C  0.26449183  0.02444289  0.59806656     0.19100
C595        C  0.28006960  0.05950276  0.57658003    -0.08800
C596        C  0.32286109  0.06603852  0.57314946    -0.01800
H597        H  0.28233919  0.96882566  0.63012945     0.05700
C598        C  0.21936473  0.01949434  0.60812121     0.21100
H599        H  0.33382841  0.09407624  0.55828608     0.10800
C600        C  0.19845311  0.05282508  0.62610745    -0.15100
C601        C  0.15569846  0.05123720  0.63333669     0.03800
C602        C  0.13302805  0.01535481  0.62378455    -0.10400
C603        C  0.15375911  0.98118413  0.60809901    -0.00500
C604        C  0.19659863  0.98252657  0.60106251    -0.05600
H605        H  0.21538049  0.08063818  0.63413554     0.06800
H606        H  0.13648209  0.95314131  0.60153269     0.10200
Br607      Br  0.24553961  0.10209089  0.55382159    -0.05300
Br608      Br  0.37043702  0.95819549  0.62946017    -0.02300
Br609      Br  0.12926292  0.09992197  0.65324371     0.00600
Br610      Br  0.22078930  0.93217761  0.58278204    -0.07700
C611        C  0.43836827  0.66211404  0.01648565    -0.11200
C612        C  0.43825885  0.67873793  0.05690883     0.04300
C613        C  0.43468267  0.72156619  0.06247044    -0.11800
C614        C  0.43385063  0.74874583  0.02850458     0.19100
C615        C  0.44344627  0.73282419  0.98925990    -0.08800
C616        C  0.44594019  0.69015825  0.98366631    -0.01800
H617        H  0.43166341  0.73358311  0.09349365     0.05700
C618        C  0.42499898  0.79347265  0.03477759     0.21100
H619        H  0.45199231  0.67925204  0.95278048     0.10800
C620        C  0.44922190  0.81617037  0.06266765    -0.15100
C621        C  0.44460425  0.85883237  0.06695291     0.03800
C622        C  0.41487613  0.87989245  0.04293780    -0.10400
C623        C  0.38807977  0.85676997  0.01760879    -0.00500
C624        C  0.39258056  0.81391471  0.01376004    -0.05600
H625        H  0.47283775  0.80066502  0.08027234     0.06800
H626        H  0.36422953  0.87220127  0.99985844     0.10200
Br627      Br  0.45359880  0.76770871  0.94207241    -0.05300
Br628      Br  0.44498730  0.64590731  0.10584449    -0.02300
Br629      Br  0.47927683  0.88659660  0.10656567     0.00600
Br630      Br  0.35237490  0.78461067  0.98108692    -0.03800
C631        C  0.10724867  0.58689721  0.04653681    -0.11200
C632        C  0.12859312  0.58792620  0.00865903     0.04300
C633        C  0.17198874  0.58637909  0.00818971    -0.11800
C634        C  0.19492548  0.58422418  0.04513746     0.19100
C635        C  0.17331293  0.58783783  0.08315356    -0.08800
C636        C  0.12982508  0.58806545  0.08345360    -0.01800
H637        H  0.18795271  0.58661752  0.97872626     0.05700
C638        C  0.24088339  0.57860462  0.04277568     0.21100
H639        H  0.11349253  0.58874922  0.11272202     0.10800
C640        C  0.26740421  0.60738629  0.06151400    -0.15100
C641        C  0.31058105  0.60511213  0.05720977     0.03800
C642        C  0.32863700  0.57337359  0.03346098    -0.10400
C643        C  0.30205956  0.54324955  0.01656106    -0.00500
C644        C  0.25881932  0.54597437  0.02021322    -0.05600
H645        H  0.25435830  0.63335584  0.07775062     0.06800
H646        H  0.31494983  0.51902694  0.99763992     0.10200
Br647      Br  0.20033882  0.59254150  0.13591812    -0.05300
Br648      Br  0.09992354  0.59272542  0.95695031    -0.02300
Br649      Br  0.34129357  0.64972777  0.08063290     0.00600
Br650      Br  0.22612653  0.50466751  0.99245521    -0.03800
C651        C  0.43795204  0.34132300  0.08575959    -0.11200
C652        C  0.43698887  0.33032106  0.04338994     0.04300
C653        C  0.43440101  0.28852928  0.03218988    -0.11800
C654        C  0.43325760  0.25724669  0.06230210     0.19100
C655        C  0.44061979  0.26797882  0.10382670    -0.08800
C656        C  0.44528669  0.30936573  0.11459480    -0.01800
H657        H  0.43109320  0.28054443  0.99987225     0.05700
C658        C  0.42446599  0.21393416  0.04990974     0.21100
H659        H  0.45099847  0.31621809  0.14675188     0.10800
C660        C  0.45196196  0.19371585  0.02342144    -0.15100
C661        C  0.44695929  0.15169868  0.01460987     0.03800
C662        C  0.41412594  0.12884747  0.03314566    -0.10400
C663        C  0.38426088  0.15023458  0.05608126    -0.00500
C664        C  0.38889849  0.19246030  0.06403422    -0.05600
H665        H  0.47829531  0.21034871  0.01060441     0.06800
H666        H  0.35800806  0.13380173  0.06932979     0.10200
Br667      Br  0.44072237  0.22831263  0.14826148    -0.05300
Br668      Br  0.43633680  0.36976595  0.99908167    -0.02300
Br669      Br  0.48628768  0.12778856  0.97723542     0.00600
Br670      Br  0.34536350  0.21961478  0.09356964    -0.03800
C671        C  0.32713849  0.42146739  0.07529018    -0.11200
C672        C  0.30810280  0.38540489  0.05923261     0.04300
C673        C  0.26503071  0.38307794  0.05450477    -0.11800
C674        C  0.23957662  0.41544113  0.06691454     0.19100
C675        C  0.25854232  0.45149018  0.08282982    -0.08800
C676        C  0.30177679  0.45471417  0.08554244    -0.01800
H677        H  0.25110002  0.35441140  0.04415236     0.05700
C678        C  0.19365182  0.40955685  0.06656715     0.21100
H679        H  0.31542528  0.48175747  0.09989783     0.10800
C680        C  0.17121858  0.41636741  0.10311168    -0.15100
C681        C  0.12797038  0.41716577  0.10294655     0.03800
C682        C  0.10617514  0.40587310  0.06706428    -0.10400
C683        C  0.12821932  0.39509780  0.03146017    -0.00500
C684        C  0.17163279  0.39785175  0.03055707    -0.05600
H685        H  0.18742499  0.42311884  0.13164014     0.06800
H686        H  0.11151351  0.38691779  0.00355245     0.10200
Br687      Br  0.22740848  0.49558584  0.10589999    -0.05300
Br688      Br  0.33705783  0.33523637  0.05010848    -0.02300
Br689      Br  0.10043560  0.43622788  0.15179691     0.00600
Br690      Br  0.19841200  0.38814163  0.97853792    -0.03800
loop_ 
_geom_bond_atom_site_label_1 
_geom_bond_atom_site_label_2 
_geom_bond_distance 
_geom_bond_site_symmetry_2 
_ccdc_geom_bond_type 
O1            V9   1.952       .  S
O1           C11   1.277       .  A
O2            V9   1.945       .  S
O2           C12   1.275       .  A
O3            V9   1.898       .  S
O3           C13   1.266       .  A
O4            V9   1.902       .  S
O4           C14   1.259       .  A
O5           V10   1.927       .  S
O5           C14   1.277       .  A
O6           V10   1.932       .  S
O6           C13   1.271       .  A
O7           V10   1.883       .  S
O7           C12   1.262       .  A
O8           V10   1.890       .  S
O8           C11   1.261       .  A
V9           V10   2.083       .  T
C11         N148   1.454       .  S
C12          N43   1.456       .  S
C13          N50   1.453       .  S
C14          N85   1.456       .  S
O15          V23   1.905       .  S
O15          C25   1.267       .  A
O16          V23   1.901       .  S
O16          C26   1.259   1_565  A
O17          V23   1.929       .  S
O17          C27   1.276       .  A
O18          V23   1.945       .  S
O18          C28   1.274   1_565  A
O19          V24   1.905       .  S
O19          C28   1.268       .  A
O20          V24   1.905       .  S
O20          C27   1.260   1_545  A
O21          V24   1.917       .  S
O21          C26   1.274       .  A
O22          V24   1.939       .  S
O22          C25   1.272   1_545  A
V23          V24   2.085   1_565  T
C25         N127   1.455       .  S
C26          N57   1.444       .  S
C27          N78   1.450       .  S
C28         N162   1.461       .  S
O29          V37   1.935       .  S
O29          C39   1.272   1_655  A
O30          V37   1.945       .  S
O30          C40   1.273   1_655  A
O31          V37   1.926   1_455  S
O31          C41   1.267       .  A
O32          V37   1.908       .  S
O32          C42   1.269   1_655  A
O33          V38   1.928       .  S
O33          C42   1.268       .  A
O34          V38   1.926       .  S
O34          C41   1.273       .  A
O35          V38   1.895       .  S
O35          C40   1.267       .  A
O36          V38   1.891       .  S
O36          C39   1.264       .  A
V37          V38   2.082   1_655  T
C39         N155   1.453       .  S
C40         N113   1.462       .  S
C41          N92   1.456       .  S
C42         N120   1.449   1_455  S
N43          C47   1.367       .  A
N43          C44   1.371       .  A
C44          C45   1.396       .  A
C44         C651   1.511       .  S
C45          C46   1.356       .  A
C45          H48   1.080       .  S
C46          C47   1.375       .  A
C46          H49   1.083       .  S
C47         C671   1.481       .  S
N50          C54   1.365       .  A
N50          C51   1.373       .  A
C51          C52   1.392   1_554  A
C51         C611   1.516       .  S
C52          C53   1.359       .  A
C52          H55   1.080       .  S
C53          C54   1.378   1_556  A
C53          H56   1.083       .  S
C54         C642   1.494       .  S
N57          C61   1.354       .  A
N57          C58   1.359       .  A
C58          C59   1.389       .  A
C58         C571   1.502       .  S
C59          C60   1.367       .  A
C59          H62   1.083       .  S
C60          C61   1.385       .  A
C60          H63   1.082       .  S
C61         C591   1.497       .  S
O64          V72   1.912       .  S
O64          C74   1.267       .  A
O65          V72   1.911   1_556  S
O65          C75   1.266       .  A
O66          V72   1.913   1_565  S
O66          C76   1.267       .  A
O67          V72   1.914       .  S
O67          C77   1.269       .  A
O68          V73   1.895       .  S
O68          C77   1.262       .  A
O69          V73   1.898   1_565  S
O69          C76   1.264       .  A
O70          V73   1.907   1_566  S
O70          C75   1.265   1_565  A
O71          V73   1.911       .  S
O71          C74   1.264       .  A
V72          V73   2.081       .  T
C74         C562   1.489       .  S
C75         C582   1.480       .  S
C76         C622   1.485       .  S
C77         C662   1.488       .  S
N78          C82   1.360       .  A
N78          C79   1.362       .  A
C79          C80   1.386       .  A
C79         C551   1.502       .  S
C80          C81   1.364       .  A
C80          H83   1.082       .  S
C81          C82   1.384       .  A
C81          H84   1.082       .  S
C82         C542   1.492       .  S
N85          C89   1.357       .  A
N85          C86   1.360       .  A
C86          C87   1.384       .  A
C86         C511   1.514       .  S
C87          C88   1.374       .  A
C87          H90   1.081       .  S
C88          C89   1.392       .  A
C88          H91   1.081       .  S
C89         C491   1.512       .  S
N92          C96   1.364       .  A
N92          C93   1.378       .  A
C93          C94   1.391       .  A
C93         C451   1.516       .  S
C94          C95   1.353       .  A
C94          H97   1.077       .  S
C95          C96   1.375       .  A
C95          H98   1.083       .  S
C96         C471   1.489       .  S
O99         V107   1.906       .  S
O99         C109   1.267   1_554  A
O100        V107   1.899       .  S
O100        C110   1.264       .  A
O101        V107   1.889   1_455  S
O101        C111   1.261       .  A
O102        V107   1.890       .  S
O102        C112   1.261       .  A
O103        V108   1.914       .  S
O103        C112   1.267       .  A
O104        V108   1.904   1_455  S
O104        C111   1.265       .  A
O105        V108   1.918       .  S
O105        C110   1.268       .  A
O106        V108   1.924   1_556  S
O106        C109   1.270       .  A
V107        V108   2.084       .  T
C109        C462   1.502   1_655  S
C110        C431   1.483       .  S
C111        C682   1.465       .  S
C112        C502   1.485       .  S
N113        C117   1.365       .  A
N113        C114   1.366       .  A
C114        C115   1.387       .  A
C114        C442   1.494       .  S
C115        C116   1.367       .  A
C115        H118   1.082       .  S
C116        C117   1.390       .  A
C116        H119   1.083       .  S
C117        C411   1.501       .  S
N120        C124   1.363       .  A
N120        C121   1.368       .  A
C121        C122   1.384       .  A
C121        C402   1.494       .  S
C122        C123   1.361       .  A
C122        H125   1.083       .  S
C123        C124   1.381       .  A
C123        H126   1.083       .  S
C124        C371   1.485       .  S
N127        C131   1.364       .  A
N127        C128   1.374       .  A
C128        C129   1.382       .  A
C128        C362   1.495       .  S
C129        C130   1.355       .  A
C129        H132   1.083       .  S
C130        C131   1.382       .  A
C130        H133   1.081       .  S
C131        C342   1.488       .  S
O134        V142   1.904       .  S
O134        C144   1.265       .  A
O135        V142   1.899   1_655  S
O135        C145   1.264       .  A
O136        V142   1.911   1_645  S
O136        C146   1.267       .  A
O137        V142   1.909       .  S
O137        C147   1.266       .  A
O138        V143   1.896       .  S
O138        C147   1.263       .  A
O139        V143   1.897   1_645  S
O139        C146   1.262       .  A
O140        V143   1.905   1_655  S
O140        C145   1.267       .  A
O141        V143   1.902       .  S
O141        C144   1.265       .  A
V142        V143   2.085       .  T
C144        C531   1.480       .  S
C145        C331   1.488       .  S
C146        C422   1.473       .  S
C147        C382   1.480       .  S
N148        C152   1.370       .  A
N148        C149   1.377       .  A
C149        C150   1.388       .  A
C149        C311   1.511       .  S
C150        C151   1.347       .  A
C150        H153   1.082       .  S
C151        C152   1.379       .  A
C151        H154   1.081       .  S
C152        C291   1.484       .  S
N155        C159   1.370       .  A
N155        C156   1.364       .  A
C156        C157   1.391       .  A
C156        C262   1.507       .  S
C157        C158   1.356       .  A
C157        H160   1.080       .  S
C158        C159   1.382       .  A
C158        H161   1.082       .  S
C159        C282   1.495       .  S
N162        C166   1.365       .  A
N162        C163   1.378       .  A
C163        C164   1.382       .  A
C163        C231   1.505       .  S
C164        C165   1.361       .  A
C164        H167   1.083       .  S
C165        C166   1.386       .  A
C165        H168   1.083       .  S
C166        C211   1.496       .  S
O169        V177   1.918       .  S
O169        C179   1.267   1_545  A
O170        V177   1.921   1_556  S
O170        C180   1.269       .  A
O171        V177   1.913       .  S
O171        C181   1.267       .  A
O172        V177   1.917   1_565  S
O172        C182   1.269       .  A
O173        V178   1.910   1_565  S
O173        C182   1.265       .  A
O174        V178   1.907       .  S
O174        C181   1.265       .  A
O175        V178   1.914   1_556  S
O175        C180   1.267       .  A
O176        V178   1.911       .  S
O176        C179   1.264   1_545  A
V177        V178   2.083       .  T
C179        C351   1.487       .  S
C180        C242   1.499       .  S
C181        C522   1.494       .  S
C182        C322   1.497       .  S
O183        V191   1.909   1_565  S
O183        C193   1.267       .  A
O184        V191   1.906       .  S
O184        C194   1.266       .  A
O185        V191   1.906   1_655  S
O185        C195   1.264       .  A
O186        V191   1.901       .  S
O186        C196   1.263       .  A
O187        V192   1.899       .  S
O187        C196   1.263       .  A
O188        V192   1.895   1_655  S
O188        C195   1.263       .  A
O189        V192   1.900       .  S
O189        C194   1.265       .  A
O190        V192   1.904   1_565  S
O190        C193   1.265       .  A
V191        V192   2.087       .  T
C193        C271   1.488       .  S
C194        C482   1.481       .  S
C195        C222   1.468       .  S
C196        C602   1.468       .  S
O197        V205   1.904   1_455  S
O197        C207   1.264       .  A
O198        V205   1.902       .  S
O198        C208   1.265       .  A
O199        V205   1.911       .  S
O199        C209   1.267       .  A
O200        V205   1.911   1_556  S
O200        C210   1.267       .  A
O201        V206   1.900   1_556  S
O201        C210   1.264       .  A
O202        V206   1.913       .  S
O202        C209   1.266       .  A
O203        V206   1.904       .  S
O203        C208   1.264       .  A
O204        V206   1.901   1_455  S
O204        C207   1.264       .  A
V205        V206   2.085       .  T
C207        C631   1.470       .  S
C208        C302   1.482       .  S
C209        C391   1.489       .  S
C210        C251   1.487       .  S
C211        C212   1.412   1_545  A
C211        C216   1.406       .  A
C212        C213   1.406       .  A
C212       Br228   1.918       .  S
C213        C214   1.409   1_565  A
C213        H217   1.082       .  S
C214        C215   1.415       .  A
C214        C218   1.498       .  S
C215        C216   1.398       .  A
C215       Br227   1.925       .  S
C216        H219   1.083       .  S
C218        C220   1.408   1_545  A
C218        C224   1.415       .  A
C220        C221   1.402       .  A
C220        H225   1.082       .  S
C221        C222   1.404   1_565  A
C221       Br229   1.917       .  S
C222        C223   1.399       .  A
C223        C224   1.398       .  A
C223        H226   1.084       .  S
C224       Br230   1.924       .  S
C231        C232   1.418       .  A
C231        C236   1.404       .  A
C232        C233   1.410       .  A
C232       Br248   1.913       .  S
C233        C234   1.404       .  A
C233        H237   1.085       .  S
C234        C235   1.408       .  A
C234        C238   1.495       .  S
C235        C236   1.403       .  A
C235       Br247   1.917   1_545  S
C236        H239   1.087       .  S
C238        C240   1.399       .  A
C238        C244   1.412       .  A
C240        C241   1.402       .  A
C240        H245   1.082   1_545  S
C241        C242   1.411       .  A
C241       Br249   1.899   1_545  S
C242        C243   1.409       .  A
C243        C244   1.412       .  A
C243        H246   1.083       .  S
C244       Br250   1.916       .  S
C251        C252   1.414       .  A
C251        C256   1.408   1_655  A
C252        C253   1.394       .  A
C252       Br268   1.908       .  S
C253        C254   1.394       .  A
C253        H257   1.080       .  S
C254        C255   1.408   1_655  A
C254        C258   1.478   1_655  S
C255        C256   1.403       .  A
C255       Br267   1.918       .  S
C256        H259   1.083       .  S
C258        C260   1.401   1_455  A
C258        C264   1.401       .  A
C260        C261   1.406       .  A
C260        H265   1.083       .  S
C261        C262   1.422   1_655  A
C261       Br269   1.917       .  S
C262        C263   1.412       .  A
C263        C264   1.391       .  A
C263        H266   1.077       .  S
C264       Br270   1.920       .  S
C271        C272   1.414   1_455  A
C271        C276   1.407       .  A
C272        C273   1.403       .  A
C272       Br288   1.919       .  S
C273        C274   1.402   1_655  A
C273        H277   1.081       .  S
C274        C275   1.408       .  A
C274        C278   1.488       .  S
C275        C276   1.403       .  A
C275       Br287   1.918       .  S
C276        H279   1.083       .  S
C278        C280   1.401       .  A
C278        C284   1.407       .  A
C280        C281   1.400       .  A
C280        H285   1.079       .  S
C281        C282   1.414       .  A
C281       Br289   1.921       .  S
C282        C283   1.408       .  A
C283        C284   1.405       .  A
C283        H286   1.077   1_455  S
C284       Br290   1.917   1_455  S
C291        C292   1.418       .  A
C291        C296   1.404       .  A
C292        C293   1.397       .  A
C292       Br308   1.925       .  S
C293        C294   1.400       .  A
C293        H297   1.083       .  S
C294        C295   1.406       .  A
C294        C298   1.477       .  S
C295        C296   1.399       .  A
C295       Br307   1.918   1_554  S
C296        H299   1.080       .  S
C298        C300   1.399       .  A
C298        C304   1.408       .  A
C300        C301   1.400       .  A
C300        H305   1.084       .  S
C301        C302   1.414       .  A
C301       Br309   1.908   1_554  S
C302        C303   1.403       .  A
C303        C304   1.397       .  A
C303        H306   1.083       .  S
C304       Br310   1.919       .  S
C311        C312   1.417       .  A
C311        C316   1.413       .  A
C312        C313   1.413       .  A
C312       Br328   1.913       .  S
C313        C314   1.408       .  A
C313        H317   1.083   1_554  S
C314        C315   1.406       .  A
C314        C318   1.492       .  S
C315        C316   1.395       .  A
C315       Br327   1.923       .  S
C316        H319   1.083       .  S
C318        C320   1.398       .  A
C318        C324   1.411       .  A
C320        C321   1.403       .  A
C320        H325   1.080       .  S
C321        C322   1.416       .  A
C321       Br329   1.909   1_554  S
C322        C323   1.408       .  A
C323        C324   1.406       .  A
C323        H326   1.083       .  S
C324       Br330   1.918       .  S
C331        C332   1.414       .  A
C331        C336   1.403       .  A
C332        C333   1.402       .  A
C332       Br348   1.921   1_565  S
C333        C334   1.406       .  A
C333        H337   1.082       .  S
C334        C335   1.419       .  A
C334        C338   1.503       .  S
C335        C336   1.400       .  A
C335       Br347   1.915       .  S
C336        H339   1.083       .  S
C338        C340   1.406       .  A
C338        C344   1.423       .  A
C340        C341   1.394       .  A
C340        H345   1.080       .  S
C341        C342   1.409       .  A
C341       Br349   1.922       .  S
C342        C343   1.403       .  A
C343        C344   1.404       .  A
C343        H346   1.083       .  S
C344       Br350   1.922   1_565  S
C351        C352   1.409   1_565  A
C351        C356   1.403       .  A
C352        C353   1.405       .  A
C352       Br368   1.911       .  S
C353        C354   1.406   1_545  A
C353        H357   1.083       .  S
C354        C355   1.418       .  A
C354        C358   1.502       .  S
C355        C356   1.407       .  A
C355       Br367   1.920       .  S
C356        H359   1.084       .  S
C358        C360   1.405       .  A
C358        C364   1.416       .  A
C360        C361   1.403       .  A
C360        H365   1.083       .  S
C361        C362   1.415       .  A
C361       Br369   1.915       .  S
C362        C363   1.406       .  A
C363        C364   1.407       .  A
C363        H366   1.083       .  S
C364       Br370   1.919   1_565  S
C371        C372   1.411       .  A
C371        C376   1.406   1_655  A
C372        C373   1.399       .  A
C372       Br388   1.919       .  S
C373        C374   1.402   1_655  A
C373        H377   1.081       .  S
C374        C375   1.407       .  A
C374        C378   1.482       .  S
C375        C376   1.402       .  A
C375       Br387   1.916       .  S
C376        H379   1.082       .  S
C378        C380   1.399       .  A
C378        C384   1.408   1_455  A
C380        C381   1.400       .  A
C380        H385   1.073       .  S
C381        C382   1.413       .  A
C381       Br389   1.922       .  S
C382        C383   1.404   1_455  A
C383        C384   1.401       .  A
C383        H386   1.083       .  S
C384       Br390   1.919       .  S
C391        C392   1.410       .  A
C391        C396   1.406   1_655  A
C392        C393   1.404       .  A
C392       Br408   1.917       .  S
C393        C394   1.406       .  A
C393        H397   1.083       .  S
C394        C395   1.413   1_655  A
C394        C398   1.498       .  S
C395        C396   1.409       .  A
C395       Br407   1.915       .  S
C396        H399   1.084       .  S
C398        C400   1.401       .  A
C398        C404   1.411   1_655  A
C400        C401   1.401       .  A
C400        H405   1.078       .  S
C401        C402   1.410       .  A
C401       Br409   1.919       .  S
C402        C403   1.410   1_655  A
C403        C404   1.411       .  A
C403        H406   1.082       .  S
C404       Br410   1.917       .  S
C411        C412   1.405   1_455  A
C411        C416   1.413       .  A
C412        C413   1.409       .  A
C412       Br428   1.909       .  S
C413        C414   1.407       .  A
C413        H417   1.078       .  S
C414        C415   1.406   1_655  A
C414        C418   1.488       .  S
C415        C416   1.396       .  A
C415       Br427   1.921       .  S
C416        H419   1.083       .  S
C418        C420   1.406       .  A
C418        C424   1.413   1_655  A
C420        C421   1.407       .  A
C420        H425   1.083       .  S
C421        C422   1.409       .  A
C421       Br429   1.919       .  S
C422        C423   1.398   1_655  A
C423        C424   1.397       .  A
C423        H426   1.084       .  S
C424       Br430   1.919       .  S
C431        C432   1.409   1_655  A
C431        C436   1.404       .  A
C432        C433   1.405       .  A
C432       Br448   1.917       .  S
C433        C434   1.407   1_455  A
C433        H437   1.083       .  S
C434        C435   1.409       .  A
C434        C438   1.490       .  S
C435        C436   1.401       .  A
C435       Br447   1.915       .  S
C436        H439   1.080       .  S
C438        C440   1.401   1_655  A
C438        C444   1.409       .  A
C440        C441   1.400       .  A
C440        H445   1.080       .  S
C441        C442   1.411       .  A
C441       Br449   1.920       .  S
C442        C443   1.410   1_455  A
C443        C444   1.408       .  A
C443        H446   1.083       .  S
C444       Br450   1.916       .  S
C451        C452   1.420       .  A
C451        C456   1.407       .  A
C452        C453   1.402       .  A
C452       Br468   1.927       .  S
C453        C454   1.407       .  A
C453        H457   1.082       .  S
C454        C455   1.421       .  A
C454        C458   1.518       .  S
C455        C456   1.414       .  A
C455       Br467   1.919   1_455  S
C456        H459   1.081   1_455  S
C458        C460   1.409       .  A
C458        C464   1.421   1_455  A
C460        C461   1.403       .  A
C460        H465   1.079       .  S
C461        C462   1.413       .  A
C461       Br469   1.919       .  S
C462        C463   1.407   1_455  A
C463        C464   1.414       .  A
C463        H466   1.083       .  S
C464       Br470   1.919       .  S
C471        C472   1.417       .  A
C471        C476   1.408       .  A
C472        C473   1.404       .  A
C472       Br488   1.913   1_455  S
C473        C474   1.400       .  A
C473        H477   1.083   1_455  S
C474        C475   1.405       .  A
C474        C478   1.479       .  S
C475        C476   1.397       .  A
C475       Br487   1.917       .  S
C476        H479   1.084       .  S
C478        C480   1.399   1_455  A
C478        C484   1.408       .  A
C480        C481   1.400       .  A
C480        H485   1.079       .  S
C481        C482   1.411   1_655  A
C481       Br489   1.917       .  S
C482        C483   1.405       .  A
C483        C484   1.401       .  A
C483        H486   1.083       .  S
C484       Br490   1.919       .  S
C491        C492   1.422       .  A
C491        C496   1.416       .  A
C492        C493   1.402       .  A
C492       Br508   1.910       .  S
C493        C494   1.398       .  A
C493        H497   1.084       .  S
C494        C495   1.405       .  A
C494        C498   1.485       .  S
C495        C496   1.399       .  A
C495       Br507   1.920       .  S
C496        H499   1.080       .  S
C498        C500   1.399       .  A
C498        C504   1.411       .  A
C500        C501   1.397       .  A
C500        H505   1.083       .  S
C501        C502   1.417       .  A
C501       Br509   1.921       .  S
C502        C503   1.405       .  A
C503        C504   1.405       .  A
C503        H506   1.083       .  S
C504       Br510   1.919       .  S
C511        C512   1.430       .  A
C511        C516   1.412       .  A
C512        C513   1.399       .  A
C512       Br528   1.925       .  S
C513        C514   1.395       .  A
C513        H517   1.084       .  S
C514        C515   1.409       .  A
C514        C518   1.492       .  S
C515        C516   1.413       .  A
C515       Br527   1.916       .  S
C516        H519   1.083       .  S
C518        C520   1.397       .  A
C518        C524   1.409       .  A
C520        C521   1.398       .  A
C520        H525   1.075       .  S
C521        C522   1.413       .  A
C521       Br529   1.918       .  S
C522        C523   1.411       .  A
C523        C524   1.410       .  A
C523        H526   1.083       .  S
C524       Br530   1.915       .  S
C531        C532   1.409   1_565  A
C531        C536   1.406       .  A
C532        C533   1.400       .  A
C532       Br548   1.919       .  S
C533        C534   1.400   1_545  A
C533        H537   1.074       .  S
C534        C535   1.409       .  A
C534        C538   1.485       .  S
C535        C536   1.402       .  A
C535       Br547   1.919       .  S
C536        H539   1.083       .  S
C538        C540   1.401       .  A
C538        C544   1.408   1_565  A
C540        C541   1.398       .  A
C540        H545   1.081       .  S
C541        C542   1.410       .  A
C541       Br549   1.919       .  S
C542        C543   1.410       .  A
C543        C544   1.402   1_565  A
C543        H546   1.083   1_565  S
C544       Br550   1.917       .  S
C551        C552   1.405   1_565  A
C551        C556   1.408       .  A
C552        C553   1.410       .  A
C552       Br568   1.906       .  S
C553        C554   1.411       .  A
C553        H557   1.081       .  S
C554        C555   1.415   1_545  A
C554        C558   1.507       .  S
C555        C556   1.401       .  A
C555       Br567   1.921       .  S
C556        H559   1.084       .  S
C558        C560   1.410   1_545  A
C558        C564   1.417       .  A
C560        C561   1.401       .  A
C560        H565   1.083       .  S
C561        C562   1.407   1_565  A
C561       Br569   1.920       .  S
C562        C563   1.406       .  A
C563        C564   1.410       .  A
C563        H566   1.081       .  S
C564       Br570   1.919       .  S
C571        C572   1.410       .  A
C571        C576   1.410       .  A
C572        C573   1.410       .  A
C572       Br588   1.910   1_545  S
C573        C574   1.410       .  A
C573        H577   1.081   1_545  S
C574        C575   1.409       .  A
C574        C578   1.496       .  S
C575        C576   1.395       .  A
C575       Br587   1.921       .  S
C576        H579   1.083       .  S
C578        C580   1.406       .  A
C578        C584   1.413   1_545  A
C580        C581   1.398       .  A
C580        H585   1.083       .  S
C581        C582   1.405       .  A
C581       Br589   1.915       .  S
C582        C583   1.405   1_545  A
C583        C584   1.409       .  A
C583        H586   1.083       .  S
C584       Br590   1.917       .  S
C591        C592   1.418       .  A
C591        C596   1.404       .  A
C592        C593   1.400   1_545  A
C592       Br608   1.921   1_545  S
C593        C594   1.404   1_565  A
C593        H597   1.081       .  S
C594        C595   1.418       .  A
C594        C598   1.497       .  S
C595        C596   1.397       .  A
C595       Br607   1.924       .  S
C596        H599   1.083       .  S
C598        C600   1.407       .  A
C598        C604   1.419   1_545  A
C600        C601   1.397       .  A
C600        H605   1.083       .  S
C601        C602   1.404       .  A
C601       Br609   1.915       .  S
C602        C603   1.396   1_545  A
C603        C604   1.399       .  A
C603        H606   1.084       .  S
C604       Br610   1.912       .  S
C611        C612   1.417       .  A
C611        C616   1.415   1_554  A
C612        C613   1.407       .  A
C612       Br628   1.917       .  S
C613        C614   1.406       .  A
C613        H617   1.083       .  S
C614        C615   1.408   1_554  A
C614        C618   1.496       .  S
C615        C616   1.399       .  A
C615       Br627   1.922       .  S
C616        H619   1.080       .  S
C618        C620   1.400       .  A
C618        C624   1.414       .  A
C620        C621   1.400       .  A
C620        H625   1.077       .  S
C621        C622   1.412       .  A
C621       Br629   1.922       .  S
C622        C623   1.405       .  A
C623        C624   1.405       .  A
C623        H626   1.084   1_554  S
C624       Br630   1.920   1_554  S
C631        C632   1.405       .  A
C631        C636   1.399       .  A
C632        C633   1.399       .  A
C632       Br648   1.917   1_554  S
C633        C634   1.407       .  A
C633        H637   1.083   1_554  S
C634        C635   1.419       .  A
C634        C638   1.495       .  S
C635        C636   1.401       .  A
C635       Br647   1.922       .  S
C636        H639   1.084       .  S
C638        C640   1.400       .  A
C638        C644   1.416       .  A
C640        C641   1.400       .  A
C640        H645   1.083       .  S
C641        C642   1.416       .  A
C641       Br649   1.906       .  S
C642        C643   1.406       .  A
C643        C644   1.401       .  A
C643        H646   1.084   1_554  S
C644       Br650   1.923   1_554  S
C651        C652   1.418       .  A
C651        C656   1.412       .  A
C652        C653   1.406       .  A
C652       Br668   1.917   1_554  S
C653        C654   1.403       .  A
C653        H657   1.083   1_554  S
C654        C655   1.409       .  A
C654        C658   1.488       .  S
C655        C656   1.395       .  A
C655       Br667   1.925       .  S
C656        H659   1.080       .  S
C658        C660   1.402       .  A
C658        C664   1.411       .  A
C660        C661   1.402       .  A
C660        H665   1.083       .  S
C661        C662   1.418       .  A
C661       Br669   1.922   1_554  S
C662        C663   1.405       .  A
C663        C664   1.401       .  A
C663        H666   1.083       .  S
C664       Br670   1.920       .  S
C671        C672   1.417       .  A
C671        C676   1.400       .  A
C672        C673   1.397       .  A
C672       Br688   1.907       .  S
C673        C674   1.398       .  A
C673        H677   1.083       .  S
C674        C675   1.414       .  A
C674        C678   1.490       .  S
C675        C676   1.398       .  A
C675       Br687   1.909       .  S
C676        H679   1.084       .  S
C678        C680   1.405       .  A
C678        C684   1.415       .  A
C680        C681   1.394       .  A
C680        H685   1.083       .  S
C681        C682   1.405       .  A
C681       Br689   1.920       .  S
C682        C683   1.401       .  A
C683        C684   1.401       .  A
C683        H686   1.084       .  S
C684       Br690   1.920   1_554  S
