geometry optimzed in LAMMPS
_audit_creation_date              2020-11-30 
_audit_creation_method            'lammps2cif' 
_symmetry_space_group_name_H-M    'P1' 
_symmetry_Int_Tables_number       1 
_symmetry_cell_setting            triclinic 
loop_ 
_symmetry_equiv_pos_as_xyz 
  x,y,z 
_cell_length_a                    53.57175578 
_cell_length_b                    53.63819927209114 
_cell_length_c                    53.632076156028354 
_cell_angle_alpha                 89.97649384104831 
_cell_angle_beta                  89.76705970836855 
_cell_angle_gamma                 90.09117465592675 
loop_ 
_atom_site_label 
_atom_site_type_symbol 
_atom_site_fract_x 
_atom_site_fract_y 
_atom_site_fract_z 
_atom_site_charge 
C1          C  0.98131138  0.01479662  0.00882577     0.02100
C2          C  0.99657907  0.02177145  0.98829086     0.02100
C3          C  0.01703888  0.00655109  0.98134730     0.02100
C4          C  0.02381687  0.98591771  0.99643253     0.02100
C5          C  0.00823457  0.97836546  0.01656314     0.02100
C6          C  0.98778469  0.99376713  0.02374446     0.02100
O7          O  0.01717137  0.19467452  0.86771461    -0.80300
O8          O  0.97872413  0.30308670  0.86742782    -0.80400
O9          O  0.95857172  0.24983952  0.84102866    -0.80400
O10         O  0.03568751  0.24736388  0.83740474    -0.80300
O11         O  0.94293565  0.27079905  0.87219104    -0.80400
O12         O  0.05349067  0.22732966  0.86790124    -0.80300
O13         O  0.99842173  0.28410613  0.83683549    -0.80300
O14         O  0.99486545  0.21263117  0.83847935    -0.80400
C15         C  0.00853474  0.19490328  0.84567398     1.09400
C16         C  0.98546893  0.30213203  0.84468445     1.09200
C17         C  0.94114095  0.26306343  0.84985938     1.09400
C18         C  0.05406516  0.23494623  0.84543777     1.09300
O19         O  0.03571358  0.24826561  0.91515668    -0.80300
O20         O  0.96459353  0.25156180  0.91860541    -0.80400
O21         O  0.97678990  0.19411561  0.88662300    -0.80300
O22         O  0.02021301  0.30472100  0.88249475    -0.80300
O23         O  0.00146264  0.28825007  0.91460371    -0.80400
O24         O  0.99878874  0.21154947  0.91601334    -0.80300
O25         O  0.05296925  0.26875414  0.88401419    -0.80300
O26         O  0.94455309  0.23026942  0.88999349    -0.80400
Co27       Co  0.02392267  0.22291452  0.89152092     1.51500
Co28       Co  0.97430333  0.27589582  0.89294377     1.51700
Co29       Co  0.97115602  0.22410013  0.86408592     1.51600
Co30       Co  0.02431385  0.27383568  0.86056666     1.51500
O31         O  0.99846406  0.24914285  0.87722098    -1.42300
C32         C  0.05318415  0.26158290  0.90658717     1.09300
C33         C  0.94632577  0.23813949  0.91228239     1.09400
C34         C  0.98581864  0.19339041  0.90846986     1.09300
C35         C  0.01339948  0.30633258  0.90521368     1.09300
O36         O  0.86094201  0.02481627  0.19989932    -0.80300
O37         O  0.85917335  0.97613593  0.30185059    -0.80400
O38         O  0.83450543  0.96073107  0.24926258    -0.80400
O39         O  0.83551396  0.04028327  0.25152980    -0.80300
O40         O  0.86609648  0.94282383  0.26718252    -0.80400
O41         O  0.86776310  0.05802704  0.23443332    -0.80300
O42         O  0.83084549  0.00038165  0.28428396    -0.80300
O43         O  0.83171263  0.00097011  0.21682151    -0.80400
C44         C  0.83836822  0.01721231  0.20109343     1.09400
C45         C  0.83688437  0.98449696  0.30055456     1.09200
C46         C  0.84348047  0.94211040  0.26046759     1.09400
C47         C  0.84510198  0.05913604  0.24118598     1.09300
O48         O  0.91322971  0.03452764  0.25132626    -0.80300
O49         O  0.91227724  0.96533869  0.25058876    -0.80400
O50         O  0.87736668  0.98424417  0.19324883    -0.80300
O51         O  0.87631727  0.01637067  0.30805685    -0.80300
O52         O  0.90857587  0.99877147  0.29080029    -0.80400
O53         O  0.90948819  0.00130544  0.21106304    -0.80300
O54         O  0.88387252  0.05115377  0.27510503    -0.80300
O55         O  0.88307687  0.94912996  0.22649578    -0.80400
Co56       Co  0.88761253  0.02695342  0.22636250     1.51500
Co57       Co  0.88641838  0.97340259  0.27545101     1.51700
Co58       Co  0.85693559  0.97593390  0.22410159     1.51600
Co59       Co  0.85688868  0.02489025  0.27709226     1.51500
O60         O  0.87208948  0.00025696  0.25075703    -1.42300
C61         C  0.90661910  0.04983532  0.26807944     1.09300
C62         C  0.90581289  0.95058836  0.23328931     1.09400
C63         C  0.90009366  0.99083130  0.19219882     1.09300
C64         C  0.89885066  0.00952411  0.30937667     1.09300
C65         C  0.97611687  0.98527253  0.49211341     0.02100
C66         C  0.98271483  0.00657822  0.47790964     0.02100
C67         C  0.00335226  0.02141114  0.48503727     0.02100
C68         C  0.01859275  0.01384454  0.50526708     0.02100
C69         C  0.01172131  0.99277001  0.51992551     0.02100
C70         C  0.99127961  0.97769209  0.51234442     0.02100
O71         O  0.02062537  0.80129516  0.63348609    -0.80300
O72         O  0.97745138  0.69660360  0.63272022    -0.80400
O73         O  0.95866859  0.74803242  0.65839346    -0.80400
O74         O  0.03913208  0.74994169  0.65806608    -0.80300
O75         O  0.94198390  0.72921728  0.62672147    -0.80400
O76         O  0.05587768  0.76838382  0.62609277    -0.80300
O77         O  0.00027934  0.71473464  0.66180564    -0.80300
O78         O  0.99685151  0.78332064  0.66218602    -0.80400
C79         C  0.01280210  0.79962288  0.65598132     1.09400
C80         C  0.98574787  0.69739492  0.65497582     1.09200
C81         C  0.94037364  0.73639529  0.64919008     1.09400
C82         C  0.05753095  0.76135863  0.64860317     1.09300
O83         O  0.03321163  0.75096916  0.58037308    -0.80300
O84         O  0.96454186  0.74762443  0.58081304    -0.80400
O85         O  0.97962967  0.80549800  0.61652831    -0.80300
O86         O  0.01828283  0.69290759  0.61605467    -0.80300
O87         O  0.99959467  0.70906308  0.58408284    -0.80400
O88         O  0.99794390  0.78891312  0.58444877    -0.80300
O89         O  0.05119012  0.72756354  0.60909186    -0.80300
O90         O  0.94620074  0.77019577  0.60998665    -0.80400
Co91       Co  0.02432636  0.77511169  0.60635737     1.51500
Co92       Co  0.97345523  0.72306987  0.60633663     1.51700
Co93       Co  0.97269063  0.77425869  0.63643552     1.51600
Co94       Co  0.02487833  0.72392267  0.63610572     1.51500
O95         O  0.99884547  0.74908830  0.62132052    -1.42300
C96         C  0.04910373  0.73465371  0.58645925     1.09300
C97         C  0.94730119  0.76220047  0.58760423     1.09400
C98         C  0.98656706  0.80713807  0.59399113     1.09300
C99         C  0.01126872  0.69099305  0.59364880     1.09300
O100        O  0.20217583  0.86712163  0.02542964    -0.80300
O101        O  0.30384217  0.86275014  0.97551178    -0.80400
O102        O  0.25090174  0.83754566  0.96165311    -0.80400
O103        O  0.25421007  0.84116181  0.04119673    -0.80300
O104        O  0.26890333  0.86846806  0.94250326    -0.80400
O105        O  0.23713220  0.87386365  0.05802523    -0.80300
O106        O  0.28657004  0.83535422  0.00112176    -0.80300
O107        O  0.21831154  0.83652427  0.00302608    -0.80400
C108        C  0.20259410  0.84426943  0.01896609     1.09400
C109        C  0.30235807  0.84069847  0.98437459     1.09200
C110        C  0.26168624  0.84596730  0.94239740     1.09400
C111        C  0.24337070  0.85110416  0.05957107     1.09300
O112        O  0.25441802  0.91863154  0.03255563    -0.80300
O113        O  0.25334664  0.91544072  0.96355210    -0.80400
O114        O  0.19593686  0.88159158  0.98422949    -0.80300
O115        O  0.31066817  0.88128673  0.01515832    -0.80300
O116        O  0.29338057  0.91269580  0.99649330    -0.80400
O117        O  0.21363953  0.91430257  0.00023792    -0.80300
O118        O  0.27811856  0.89000707  0.05031287    -0.80300
O119        O  0.22846372  0.88609719  0.94862486    -0.80400
Co120      Co  0.22912447  0.89311952  0.02635381     1.51500
Co121      Co  0.27773266  0.88977219  0.97224307     1.51700
Co122      Co  0.22614707  0.86069294  0.97652677     1.51600
Co123      Co  0.27971645  0.86216841  0.02481788     1.51500
O124        O  0.25315878  0.87652723  0.99994830    -1.42300
C125        C  0.27092611  0.91259042  0.04819010     1.09300
C126        C  0.23641261  0.90856138  0.94867573     1.09400
C127        C  0.19475164  0.90438765  0.99017783     1.09300
C128        C  0.31194390  0.90362474  0.00766708     1.09300
O129        O  0.00156749  0.78954785  0.16186696    -0.80300
O130        O  0.00055336  0.71760135  0.16702998    -0.80400
O131        O  0.94662865  0.77123858  0.12953840    -0.80400
O132        O  0.05705600  0.73049749  0.13539633    -0.80300
O133        O  0.96277881  0.75347096  0.16230194    -0.80400
O134        O  0.03911052  0.75317581  0.16426212    -0.80300
O135        O  0.02199894  0.69720045  0.13865301    -0.80300
O136        O  0.98154615  0.80521309  0.12982565    -0.80400
C137        C  0.98797347  0.80635014  0.15257238     1.09400
C138        C  0.01443339  0.69958838  0.16102836     1.09200
C139        C  0.94483303  0.76517384  0.15240477     1.09400
C140        C  0.05724527  0.73984644  0.15713389     1.09300
O141        O  0.05643051  0.77039018  0.11592267    -0.80300
O142        O  0.94897569  0.72927330  0.11586694    -0.80400
O143        O  0.00380102  0.78595562  0.08411797    -0.80300
O144        O  0.00274976  0.71027546  0.08931054    -0.80300
O145        O  0.98192026  0.69451296  0.12056538    -0.80400
O146        O  0.02313542  0.80565070  0.11398137    -0.80300
O147        O  0.03918623  0.74732032  0.08678709    -0.80300
O148        O  0.96773946  0.74830451  0.08478729    -0.80400
Co149      Co  0.02763637  0.77727512  0.13894758     1.51500
Co150      Co  0.97605365  0.72613420  0.14121890     1.51700
Co151      Co  0.97732781  0.77529195  0.10754371     1.51600
Co152      Co  0.02784999  0.72371586  0.11251254     1.51500
O153        O  0.00224433  0.75066792  0.12512069    -1.42300
C154        C  0.05641801  0.76166804  0.09393593     1.09300
C155        C  0.95030953  0.73457096  0.09282449     1.09400
C156        C  0.01599033  0.80478674  0.09137856     1.09300
C157        C  0.98973643  0.69268575  0.09814742     1.09300
C158        C  0.26431932  0.77338551  0.24464340     0.02100
C159        C  0.24359044  0.76695519  0.22943240     0.02100
C160        C  0.22848888  0.74611215  0.23592331     0.02100
C161        C  0.23555453  0.73022640  0.25591642     0.02100
C162        C  0.25655842  0.73652630  0.27078955     0.02100
C163        C  0.27186997  0.75712479  0.26414618     0.02100
O164        O  0.21453720  0.66428563  0.49663016    -0.80300
O165        O  0.28335519  0.66542688  0.49502357    -0.80400
O166        O  0.23550057  0.63136196  0.55630587    -0.80400
O167        O  0.26422135  0.62479589  0.44027213    -0.80300
O168        O  0.25170709  0.66318605  0.53724750    -0.80400
O169        O  0.24721208  0.65774758  0.45625275    -0.80300
O170        O  0.29954692  0.63529682  0.47184940    -0.80300
O171        O  0.19949650  0.63708293  0.52396509    -0.80400
C172        C  0.19958052  0.65882993  0.51420354     1.09400
C173        C  0.29829708  0.65823775  0.47806353     1.09200
C174        C  0.24197925  0.65401676  0.55671189     1.09400
C175        C  0.25773421  0.64735568  0.43791739     1.09300
O176        O  0.22457147  0.60736077  0.44966759    -0.80300
O177        O  0.27614922  0.61495813  0.54904538    -0.80400
O178        O  0.20979569  0.58700741  0.50348855    -0.80300
O179        O  0.29087394  0.58823662  0.49875036    -0.80300
O180        O  0.30830455  0.62174311  0.51315446    -0.80400
O181        O  0.19174998  0.61772721  0.48449143    -0.80300
O182        O  0.24970179  0.58083860  0.46862772    -0.80300
O183        O  0.25122427  0.58536492  0.53441775    -0.80400
Co184      Co  0.22230658  0.63671657  0.47380913     1.51500
Co185      Co  0.27702388  0.64095676  0.52152983     1.51700
Co186      Co  0.22608892  0.61042245  0.52677242     1.51600
Co187      Co  0.27391840  0.60770461  0.47256933     1.51500
O188        O  0.24980434  0.62416719  0.49873132    -1.42300
C189        C  0.23325979  0.58531812  0.45250589     1.09300
C190        C  0.26825421  0.59243769  0.54907208     1.09400
C191        C  0.19087024  0.59567075  0.49263068     1.09300
C192        C  0.30979845  0.59883997  0.50782936     1.09300
C193        C  0.26484795  0.73075347  0.74282209     0.02100
C194        C  0.24428122  0.73690330  0.72718573     0.02100
C195        C  0.22817016  0.75702798  0.73364255     0.02100
C196        C  0.23436345  0.77266509  0.75417570     0.02100
C197        C  0.25477680  0.76654615  0.76993769     0.02100
C198        C  0.27065772  0.74631825  0.76351816     0.02100
O199        O  0.44924130  0.77558714  0.89098845    -0.80300
O200        O  0.54864666  0.72465233  0.88450778    -0.80400
O201        O  0.49891805  0.70931312  0.91073980    -0.80400
O202        O  0.50202016  0.79124361  0.91128248    -0.80300
O203        O  0.51322488  0.69215069  0.87703955    -0.80400
O204        O  0.48350123  0.80875367  0.88000585    -0.80300
O205        O  0.53342660  0.74957514  0.91380973    -0.80300
O206        O  0.46783371  0.75023962  0.91775607    -0.80400
C207        C  0.45193140  0.76691873  0.91305816     1.09400
C208        C  0.54832924  0.73250011  0.90706931     1.09200
C209        C  0.50831702  0.69059093  0.90002121     1.09400
C210        C  0.49116018  0.81004753  0.90221769     1.09300
O211        O  0.49626051  0.78468109  0.83400935    -0.80300
O212        O  0.49549422  0.71673992  0.83327490    -0.80400
O213        O  0.44003442  0.73566980  0.87411466    -0.80300
O214        O  0.55587926  0.76507441  0.86790936    -0.80300
O215        O  0.53734531  0.74873736  0.83599301    -0.80400
O216        O  0.45608595  0.75234001  0.84093454    -0.80300
O217        O  0.52322296  0.80047976  0.86107449    -0.80300
O218        O  0.47198546  0.70059873  0.86336749    -0.80400
Co219      Co  0.47332003  0.77760164  0.86158715     1.51500
Co220      Co  0.52156033  0.72344405  0.85806526     1.51700
Co221      Co  0.47237031  0.72607208  0.89109186     1.51600
Co222      Co  0.52586566  0.77450869  0.88835916     1.51500
O223        O  0.49829745  0.75044109  0.87461384    -1.42300
C224        C  0.51411996  0.79928041  0.83910976     1.09300
C225        C  0.47860887  0.70168708  0.84047256     1.09400
C226        C  0.43762067  0.74235306  0.85162250     1.09300
C227        C  0.55673882  0.75820264  0.84539950     1.09300
C228        C  0.75485362  0.23746972  0.77491748     0.02100
C229        C  0.76998949  0.25839613  0.76836061     0.02100
C230        C  0.76238465  0.27439091  0.74873608     0.02100
C231        C  0.74190002  0.26766964  0.73344418     0.02100
C232        C  0.72678523  0.24682789  0.73975526     0.02100
C233        C  0.73388261  0.23093070  0.75982549     0.02100
O234        O  0.88540428  0.45007805  0.77700963    -0.80300
O235        O  0.88695794  0.55312107  0.72739245    -0.80400
O236        O  0.91439018  0.49870369  0.71311709    -0.80400
O237        O  0.91401601  0.50335465  0.79054100    -0.80300
O238        O  0.88329893  0.51738309  0.69472352    -0.80400
O239        O  0.88237029  0.48550860  0.80909561    -0.80300
O240        O  0.91643904  0.53601376  0.75013594    -0.80300
O241        O  0.91582434  0.46557988  0.75409717    -0.80400
C242        C  0.90806402  0.44972198  0.76987691     1.09400
C243        C  0.90948084  0.55249675  0.73487511     1.09200
C244        C  0.90574990  0.50976784  0.69417454     1.09400
C245        C  0.90520072  0.49196840  0.80923898     1.09300
O246        O  0.83598313  0.50392233  0.78671887    -0.80300
O247        O  0.83622100  0.50025860  0.71574127    -0.80400
O248        O  0.86921847  0.44470646  0.73645959    -0.80300
O249        O  0.86995856  0.55838564  0.76790878    -0.80300
O250        O  0.83834507  0.54069202  0.74951850    -0.80400
O251        O  0.83765887  0.46311577  0.75427993    -0.80300
O252        O  0.86599158  0.52611575  0.80367833    -0.80300
O253        O  0.86620953  0.47662037  0.70037784    -0.80400
Co254      Co  0.86052558  0.47793498  0.77911749     1.51500
Co255      Co  0.86139098  0.52563664  0.72453565     1.51700
Co256      Co  0.89122453  0.47413497  0.72820668     1.51600
Co257      Co  0.89139150  0.52836119  0.77584199     1.51500
O258        O  0.87607903  0.50149462  0.75184835    -1.42300
C259        C  0.84321774  0.51927389  0.80300492     1.09300
C260        C  0.84351024  0.48361756  0.70060669     1.09400
C261        C  0.84670005  0.44400916  0.74382688     1.09300
C262        C  0.84721789  0.55910158  0.76136847     1.09300
O263        O  0.00051856  0.21585074  0.33336115    -0.80300
O264        O  0.99975151  0.28565083  0.33459927    -0.80400
O265        O  0.94259058  0.23202045  0.36864909    -0.80400
O266        O  0.05619070  0.26835277  0.36982683    -0.80300
O267        O  0.95960917  0.25097693  0.33694781    -0.80400
O268        O  0.03965002  0.25033457  0.33752339    -0.80300
O269        O  0.02213539  0.30194021  0.36497016    -0.80300
O270        O  0.97671383  0.19806392  0.36209887    -0.80400
C271        C  0.98453497  0.19964999  0.33966198     1.09400
C272        C  0.01634056  0.30086862  0.34198258     1.09200
C273        C  0.94109204  0.23953878  0.34628502     1.09400
C274        C  0.05794094  0.26160367  0.34724738     1.09300
O275        O  0.05157195  0.22713303  0.38527576    -0.80300
O276        O  0.94743743  0.27251446  0.38603652    -0.80400
O277        O  0.99920356  0.21003841  0.41103384    -0.80300
O278        O  0.99906189  0.28807437  0.41265259    -0.80300
O279        O  0.98137347  0.30649995  0.38116066    -0.80400
O280        O  0.01737244  0.19300461  0.37910311    -0.80300
O281        O  0.03410018  0.24913695  0.41535196    -0.80300
O282        O  0.96471897  0.24850997  0.41471435    -0.80400
Co283      Co  0.02493242  0.22411090  0.35910622     1.51500
Co284      Co  0.97436400  0.27627660  0.35976025     1.51700
Co285      Co  0.97340469  0.22435394  0.38891961     1.51600
Co286      Co  0.02520850  0.27458472  0.39045707     1.51500
O287        O  0.99945918  0.24983340  0.37438978    -1.42300
C288        C  0.05143689  0.23505915  0.40767351     1.09300
C289        C  0.94847035  0.26430488  0.40834948     1.09400
C290        C  0.01046772  0.19163254  0.40170065     1.09300
C291        C  0.98805658  0.30691500  0.40382048     1.09300
C292        C  0.23449758  0.27154214  0.24316665     0.02100
C293        C  0.22871228  0.25675029  0.26463455     0.02100
C294        C  0.24414909  0.23615364  0.27108146     0.02100
C295        C  0.26411841  0.22898326  0.25515412     0.02100
C296        C  0.27043645  0.24400528  0.23423591     0.02100
C297        C  0.25468140  0.26420922  0.22732056     0.02100
O298        O  0.21639609  0.33315768  0.99817610    -0.80300
O299        O  0.28611943  0.33622712  0.99799115    -0.80400
O300        O  0.23284663  0.37081266  0.94257370    -0.80400
O301        O  0.26719591  0.36850454  0.05583263    -0.80300
O302        O  0.25193637  0.33932928  0.95928928    -0.80400
O303        O  0.25013412  0.33631391  0.03807972    -0.80300
O304        O  0.30191709  0.36535876  0.02244798    -0.80300
O305        O  0.19844587  0.36270254  0.97599023    -0.80400
C306        C  0.20051408  0.33984676  0.98211783     1.09400
C307        C  0.30144177  0.34296763  0.01453988     1.09200
C308        C  0.24037598  0.34845341  0.94100816     1.09400
C309        C  0.26101616  0.34572827  0.05674577     1.09300
O310        O  0.22580259  0.38336156  0.05141952    -0.80300
O311        O  0.27260323  0.38941264  0.94848925    -0.80400
O312        O  0.20843111  0.41064060  0.00024859    -0.80300
O313        O  0.28884631  0.41410982  0.00157212    -0.80300
O314        O  0.30700836  0.38346782  0.98211057    -0.80400
O315        O  0.19188490  0.37773066  0.01726570    -0.80300
O316        O  0.24794929  0.41422534  0.03538325    -0.80300
O317        O  0.24796489  0.41667638  0.96720577    -0.80400
Co318      Co  0.22371889  0.35806964  0.02390949     1.51500
Co319      Co  0.27677274  0.36216294  0.97417239     1.51700
Co320      Co  0.22419788  0.38998063  0.97405651     1.51600
Co321      Co  0.27415589  0.39036273  0.02611494     1.51500
O322        O  0.24975008  0.37508414  0.99961481    -1.42300
C323        C  0.23278578  0.40606910  0.05170132     1.09300
C324        C  0.26389503  0.41141830  0.95067707     1.09400
C325        C  0.18999517  0.40046752  0.01093318     1.09300
C326        C  0.30771717  0.40576404  0.98995846     1.09300
C327        C  0.24350229  0.26256589  0.77226864     0.02100
C328        C  0.22787886  0.24201415  0.76591083     0.02100
C329        C  0.23493192  0.22635125  0.74557549     0.02100
C330        C  0.25565829  0.23262884  0.72993859     0.02100
C331        C  0.27121098  0.25311474  0.73661485     0.02100
C332        C  0.26434614  0.26887364  0.75690828     0.02100
O333        O  0.55039568  0.27453949  0.60928617    -0.80300
O334        O  0.44950738  0.22417985  0.61512351    -0.80400
O335        O  0.50125790  0.20776362  0.58957489    -0.80400
O336        O  0.49706317  0.28864683  0.58393442    -0.80300
O337        O  0.48502526  0.19170517  0.62311112    -0.80400
O338        O  0.51566854  0.30770973  0.61456125    -0.80300
O339        O  0.46518906  0.24640237  0.58403936    -0.80300
O340        O  0.53262360  0.24858621  0.58270639    -0.80400
C341        C  0.54873901  0.26501058  0.58752479     1.09400
C342        C  0.45023155  0.22985596  0.59202480     1.09200
C343        C  0.49119480  0.18936383  0.60038687     1.09400
C344        C  0.50827407  0.30776460  0.59219213     1.09300
O345        O  0.49920768  0.28755817  0.66174340    -0.80300
O346        O  0.50185899  0.21795661  0.66696657    -0.80400
O347        O  0.55774653  0.23590213  0.62912916    -0.80300
O348        O  0.44254716  0.26561266  0.62898629    -0.80300
O349        O  0.46069262  0.25047936  0.66184142    -0.80400
O350        O  0.53977062  0.25483771  0.66008359    -0.80300
O351        O  0.47492308  0.30190000  0.63183182    -0.80300
O352        O  0.52582658  0.20051289  0.63822001    -0.80400
Co353      Co  0.52414688  0.27839691  0.63645715     1.51500
Co354      Co  0.47642080  0.22388498  0.64128773     1.51700
Co355      Co  0.52672185  0.22535088  0.61001809     1.51600
Co356      Co  0.47265273  0.27336411  0.60758612     1.51500
O357        O  0.49993099  0.25029311  0.62389132    -1.42300
C358        C  0.48322314  0.30309199  0.65403934     1.09300
C359        C  0.51857101  0.20237902  0.66081490     1.09400
C360        C  0.55879984  0.24412016  0.65129576     1.09300
C361        C  0.44164980  0.26030174  0.65199800     1.09300
O362        O  0.33798730  0.00060021  0.21468483    -0.80300
O363        O  0.33624420  0.00181376  0.28547373    -0.80400
O364        O  0.37137586  0.94442782  0.23429035    -0.80400
O365        O  0.37068474  0.05795530  0.26754870    -0.80300
O366        O  0.33940676  0.96209424  0.25201371    -0.80400
O367        O  0.33961987  0.04015500  0.24854710    -0.80300
O368        O  0.36542929  0.02509314  0.30267423    -0.80300
O369        O  0.36800802  0.97725325  0.19895225    -0.80400
C370        C  0.34537262  0.98445654  0.19914613     1.09400
C371        C  0.34278829  0.01793785  0.30133340     1.09200
C372        C  0.34871170  0.94336996  0.24114890     1.09400
C373        C  0.34836076  0.05893067  0.25972286     1.09300
O374        O  0.38876796  0.05310088  0.22753194    -0.80300
O375        O  0.38728020  0.94944188  0.27512122    -0.80400
O376        O  0.41595604  0.99972470  0.21254620    -0.80300
O377        O  0.41405331  0.00249332  0.29070860    -0.80300
O378        O  0.38219727  0.98431778  0.30829760    -0.80400
O379        O  0.38498075  0.01819219  0.19396211    -0.80300
O380        O  0.41741124  0.03533765  0.25094046    -0.80300
O381        O  0.41729334  0.96636899  0.25271404    -0.80400
Co382      Co  0.36297685  0.02575122  0.22381458     1.51500
Co383      Co  0.36155264  0.97669852  0.27759406     1.51700
Co384      Co  0.39287645  0.97458239  0.22686346     1.51600
Co385      Co  0.39172083  0.02764782  0.27577198     1.51500
O386        O  0.37712066  0.00115600  0.25098480    -1.42300
C387        C  0.41099202  0.05211811  0.23583957     1.09300
C388        C  0.40991780  0.94975675  0.26778985     1.09400
C389        C  0.40761251  0.01125854  0.19377977     1.09300
C390        C  0.40492859  0.99093937  0.30912267     1.09300
C391        C  0.49135330  0.01810741  0.51712133     0.02100
C392        C  0.51196601  0.00313413  0.52451001     0.02100
C393        C  0.52035236  0.98312936  0.50911846     0.02100
C394        C  0.50623561  0.97637344  0.48766801     0.02100
C395        C  0.48540534  0.99119874  0.48037859     0.02100
C396        C  0.47715019  0.01112852  0.49591836     0.02100
O397        O  0.46286955  0.75227167  0.41002576    -0.80300
O398        O  0.53502623  0.75209315  0.41341018    -0.80400
O399        O  0.48047066  0.69566632  0.38003094    -0.80400
O400        O  0.52015412  0.80678985  0.37867274    -0.80300
O401        O  0.49879347  0.71307716  0.41188759    -0.80400
O402        O  0.49911424  0.79020644  0.40943318    -0.80300
O403        O  0.55330660  0.77251155  0.38286162    -0.80300
O404        O  0.44657701  0.73022045  0.37956732    -0.80400
C405        C  0.44589169  0.73812402  0.40188274     1.09400
C406        C  0.55248756  0.76606572  0.40560429     1.09200
C407        C  0.48681083  0.69476362  0.40282659     1.09400
C408        C  0.51229353  0.80797790  0.40106214     1.09300
O409        O  0.48032294  0.80432146  0.36031487    -0.80300
O410        O  0.52222886  0.69748827  0.36553248    -0.80400
O411        O  0.46404874  0.74975062  0.33209053    -0.80300
O412        O  0.54059740  0.74978731  0.33561243    -0.80300
O413        O  0.55667554  0.73105623  0.36798347    -0.80400
O414        O  0.44544352  0.77082631  0.36167025    -0.80300
O415        O  0.50243859  0.78525330  0.33152064    -0.80300
O416        O  0.50251355  0.71418535  0.33385554    -0.80400
Co417      Co  0.47435088  0.77701148  0.38539351     1.51500
Co418      Co  0.52560804  0.72592920  0.38938474     1.51700
Co419      Co  0.47580623  0.72492290  0.35665883     1.51600
Co420      Co  0.52664592  0.77612569  0.35729082     1.51500
O421        O  0.50057662  0.75095146  0.37229333    -1.42300
C422        C  0.48883169  0.80324403  0.33816450     1.09300
C423        C  0.51668908  0.69748843  0.34255327     1.09400
C424        C  0.44560422  0.76256744  0.33943058     1.09300
C425        C  0.55849335  0.73786417  0.34531718     1.09300
O426        O  0.58643744  0.96420761  0.75238253    -0.80300
O427        O  0.58394227  0.03441946  0.74982135    -0.80400
O428        O  0.62064501  0.98413063  0.80709925    -0.80400
O429        O  0.61728404  0.01685532  0.69355740    -0.80300
O430        O  0.58804400  0.00121350  0.79001224    -0.80400
O431        O  0.58643976  0.99752743  0.71183644    -0.80300
O432        O  0.61268945  0.05190343  0.72599684    -0.80300
O433        O  0.61735394  0.94875854  0.77445376    -0.80400
C434        C  0.59445198  0.94868176  0.76818613     1.09400
C435        C  0.59009817  0.05014330  0.73334427     1.09200
C436        C  0.59773153  0.98999902  0.80834844     1.09400
C437        C  0.59487617  0.00929308  0.69312466     1.09300
O438        O  0.63494519  0.97674411  0.69799815    -0.80300
O439        O  0.63562670  0.02541253  0.80158501    -0.80400
O440        O  0.66457379  0.96314851  0.75106135    -0.80300
O441        O  0.66186504  0.04048442  0.74734332    -0.80300
O442        O  0.63027127  0.05795091  0.76620885    -0.80400
O443        O  0.63333289  0.94394676  0.73332282    -0.80300
O444        O  0.66457136  0.00045187  0.71366149    -0.80300
O445        O  0.66600655  0.00370389  0.78447309    -0.80400
Co446      Co  0.61044384  0.97323986  0.72619274     1.51500
Co447      Co  0.60971998  0.02714242  0.77462229     1.51700
Co448      Co  0.64183027  0.97718268  0.77659206     1.51600
Co449      Co  0.63908172  0.02523406  0.72284714     1.51500
O450        O  0.62522739  0.00067656  0.75005244    -1.42300
C451        C  0.65720545  0.98505804  0.69736638     1.09300
C452        C  0.65837902  0.01863042  0.80111869     1.09400
C453        C  0.65609070  0.94415827  0.73992556     1.09300
C454        C  0.65280182  0.05901871  0.75873484     1.09300
C455        C  0.48813072  0.00852014  0.02213556     0.02100
C456        C  0.48131934  0.98731837  0.00771102     0.02100
C457        C  0.49648758  0.97966327  0.98723663     0.02100
C458        C  0.51729830  0.99439558  0.97991862     0.02100
C459        C  0.52417812  0.01539314  0.99438940     0.02100
C460        C  0.50864529  0.02339956  0.01430605     0.02100
O461        O  0.46723070  0.25360054  0.08293637    -0.80300
O462        O  0.53601458  0.25082816  0.08499495    -0.80400
O463        O  0.48559559  0.30907967  0.11985036    -0.80400
O464        O  0.51555943  0.19419926  0.11863663    -0.80300
O465        O  0.50384745  0.29166584  0.08801563    -0.80400
O466        O  0.49935994  0.21232534  0.08627291    -0.80300
O467        O  0.55135244  0.22620617  0.11422161    -0.80300
O468        O  0.45017228  0.27688696  0.11242163    -0.80400
C469        C  0.45193561  0.27028348  0.08965555     1.09400
C470        C  0.55081675  0.23377499  0.09166041     1.09200
C471        C  0.49355602  0.31054528  0.09761987     1.09400
C472        C  0.50939660  0.19331400  0.09591878     1.09300
O473        O  0.47453939  0.20049221  0.13365368    -0.80300
O474        O  0.52546098  0.30180889  0.13721870    -0.80400
O475        O  0.45968175  0.25270258  0.16053946    -0.80300
O476        O  0.53805014  0.24859851  0.16281066    -0.80300
O477        O  0.55771417  0.26636393  0.13193593    -0.80400
O478        O  0.44251426  0.23599176  0.12778046    -0.80300
O479        O  0.49715812  0.21614772  0.16409862    -0.80300
O480        O  0.50047898  0.28559580  0.16579172    -0.80400
Co481      Co  0.47362575  0.22783141  0.10796602     1.51500
Co482      Co  0.52807627  0.27549261  0.11060297     1.51700
Co483      Co  0.47608339  0.27832282  0.13945515     1.51600
Co484      Co  0.52348240  0.22402383  0.13975964     1.51500
O485        O  0.50030462  0.25142799  0.12441429    -1.42300
C486        C  0.48116241  0.20052330  0.15644019     1.09300
C487        C  0.51711779  0.30124934  0.15952057     1.09400
C488        C  0.44121498  0.24184420  0.15064337     1.09300
C489        C  0.55734381  0.25928300  0.15447919     1.09300
O490        O  0.19808106  0.13591529  0.47449759    -0.80300
O491        O  0.29947878  0.13294677  0.52415564    -0.80400
O492        O  0.24793026  0.16040446  0.53891289    -0.80400
O493        O  0.25087312  0.15985601  0.45932904    -0.80300
O494        O  0.26399841  0.12802233  0.55706679    -0.80400
O495        O  0.23327215  0.12774511  0.44187471    -0.80300
O496        O  0.28427646  0.16291692  0.50027615    -0.80300
O497        O  0.21508421  0.16490421  0.49835867    -0.80400
C498        C  0.19990560  0.15859206  0.48137041     1.09400
C499        C  0.30029184  0.15519809  0.51584141     1.09200
C500        C  0.25838896  0.15099440  0.55776276     1.09400
C501        C  0.24047864  0.15023115  0.44050627     1.09300
O502        O  0.24766649  0.08201668  0.46634888    -0.80300
O503        O  0.24646057  0.08266889  0.53341498    -0.80400
O504        O  0.19030206  0.12043277  0.51524263    -0.80300
O505        O  0.30583551  0.11659056  0.48354613    -0.80300
O506        O  0.28806351  0.08475725  0.50133510    -0.80400
O507        O  0.20670736  0.08745126  0.49844994    -0.80300
O508        O  0.27288447  0.11012963  0.44934742    -0.80300
O509        O  0.22295692  0.11226073  0.55014314    -0.80400
Co510      Co  0.22361009  0.10847126  0.47296835     1.51500
Co511      Co  0.27220355  0.10741400  0.52636868     1.51700
Co512      Co  0.22181748  0.13919007  0.52360201     1.51600
Co513      Co  0.27563133  0.13736049  0.47528609     1.51500
O514        O  0.24833019  0.12310931  0.49955742    -1.42300
C515        C  0.26480486  0.08775946  0.45111254     1.09300
C516        C  0.22964855  0.08944191  0.54854775     1.09400
C517        C  0.18817996  0.09787009  0.50871859     1.09300
C518        C  0.30683791  0.09397015  0.49017440     1.09300
C519        C  0.76678819  0.76963200  0.25765696     0.02100
C520        C  0.77422851  0.75482337  0.23697081     0.02100
C521        C  0.75930421  0.73414843  0.22961482     0.02100
C522        C  0.73849694  0.72678513  0.24461634     0.02100
C523        C  0.73146300  0.74135005  0.26571557     0.02100
C524        C  0.74651161  0.76192627  0.27300998     0.02100
O525        O  0.61552279  0.55308315  0.27006410    -0.80300
O526        O  0.61158454  0.44799617  0.22828168    -0.80400
O527        O  0.58866634  0.50003916  0.20915193    -0.80400
O528        O  0.58801124  0.50251293  0.28876925    -0.80300
O529        O  0.61989268  0.48009815  0.19275104    -0.80400
O530        O  0.61997675  0.52019944  0.30606756    -0.80300
O531        O  0.58341771  0.46781498  0.25103531    -0.80300
O532        O  0.58611824  0.53518023  0.24744827    -0.80400
C533        C  0.59314582  0.55222142  0.26209875     1.09400
C534        C  0.58912249  0.45074527  0.23589782     1.09200
C535        C  0.59774258  0.48813627  0.19094931     1.09400
C536        C  0.59729343  0.51349207  0.30730889     1.09300
O537        O  0.66576203  0.50083117  0.28508944    -0.80300
O538        O  0.66635047  0.49693170  0.21487594    -0.80400
O539        O  0.63282948  0.55576797  0.22933755    -0.80300
O540        O  0.62817778  0.44362233  0.26900802    -0.80300
O541        O  0.66087675  0.45944649  0.25091575    -0.80400
O542        O  0.66398866  0.53865818  0.24869913    -0.80300
O543        O  0.63555774  0.47840942  0.30226487    -0.80300
O544        O  0.63807499  0.52043837  0.19642741    -0.80400
Co545      Co  0.64099566  0.52582298  0.27492176     1.51500
Co546      Co  0.63957778  0.47341434  0.22426793     1.51700
Co547      Co  0.61156437  0.52536540  0.22300784     1.51600
Co548      Co  0.60919686  0.47558011  0.27544812     1.51500
O549        O  0.62552031  0.50006749  0.24942540    -1.42300
C550        C  0.65840766  0.48510816  0.30117207     1.09300
C551        C  0.66030912  0.51207890  0.19782279     1.09400
C552        C  0.65532428  0.55683324  0.23646589     1.09300
C553        C  0.65080403  0.44151247  0.26240022     1.09300
C554        C  0.77018469  0.24468856  0.26398160     0.02100
C555        C  0.76349800  0.22982609  0.24309382     0.02100
C556        C  0.74258995  0.23656762  0.22825787     0.02100
C557        C  0.72706566  0.25669556  0.23581697     0.02100
C558        C  0.73373922  0.27145941  0.25669565     0.02100
C559        C  0.75457154  0.26468223  0.27136639     0.02100
C560        C  0.76980237  0.74289304  0.73427582     0.02100
C561        C  0.75543678  0.76409010  0.72752073     0.02100
C562        C  0.73502141  0.77174600  0.74255869     0.02100
C563        C  0.72704686  0.75642138  0.76254310     0.02100
C564        C  0.74146794  0.73545809  0.76988078     0.02100
C565        C  0.76223953  0.72793249  0.75495726     0.02100
O566        O  0.16316019  0.99723591  0.78332324    -0.80300
O567        O  0.16029010  0.00015343  0.71357178    -0.80400
O568        O  0.12614644  0.94171261  0.76436571    -0.80400
O569        O  0.12689614  0.05660874  0.73491863    -0.80300
O570        O  0.15756038  0.95982806  0.74613130    -0.80400
O571        O  0.15928052  0.03824811  0.75078324    -0.80300
O572        O  0.13092739  0.02487513  0.69873555    -0.80300
O573        O  0.13378268  0.97363627  0.80014530    -0.80400
C574        C  0.15654756  0.98055982  0.79875539     1.09400
C575        C  0.15331184  0.01683107  0.69846264     1.09200
C576        C  0.14851053  0.94084316  0.75668836     1.09400
C577        C  0.14965168  0.05744575  0.74114319     1.09300
O578        O  0.11169423  0.04994205  0.77575685    -0.80300
O579        O  0.10788054  0.94879441  0.72465962    -0.80400
O580        O  0.08534393  0.99748956  0.79070293    -0.80300
O581        O  0.08236774  0.00252916  0.71108148    -0.80300
O582        O  0.11348649  0.98442580  0.69220143    -0.80400
O583        O  0.11808666  0.01444894  0.80769130    -0.80300
O584        O  0.08122116  0.03438165  0.75300901    -0.80300
O585        O  0.07984561  0.96494801  0.75031394    -0.80400
Co586      Co  0.13770366  0.02275411  0.77657866     1.51500
Co587      Co  0.13470498  0.97538370  0.72189070     1.51700
Co588      Co  0.10649172  0.97219101  0.77424407     1.51600
Co589      Co  0.10559875  0.02682127  0.72661136     1.51500
O590        O  0.12107711  0.99927616  0.74979159    -1.42300
C591        C  0.08882814  0.04979915  0.76922217     1.09300
C592        C  0.08569534  0.94950719  0.73344280     1.09400
C593        C  0.09532112  0.00820584  0.80911987     1.09300
C594        C  0.09101707  0.99174355  0.69192124     1.09300
O595        O  0.75142637  0.41273902  0.53532057    -0.80300
O596        O  0.75000838  0.41233537  0.46609461    -0.80400
O597        O  0.80808482  0.37504266  0.51581213    -0.80400
O598        O  0.69234005  0.37674272  0.48667022    -0.80300
O599        O  0.79107314  0.40759207  0.49886707    -0.80400
O600        O  0.71073444  0.40878889  0.50304579    -0.80300
O601        O  0.72468365  0.38345557  0.45088896    -0.80300
O602        O  0.77597969  0.38382092  0.55152827    -0.80400
C603        C  0.76840532  0.40637485  0.55040123     1.09400
C604        C  0.73263540  0.40592283  0.45133157     1.09200
C605        C  0.80981751  0.39749956  0.50889928     1.09400
C606        C  0.69149477  0.39938276  0.49333537     1.09300
O607        O  0.69977012  0.36010878  0.52692661    -0.80300
O608        O  0.80004008  0.35818713  0.47563319    -0.80400
O609        O  0.75151601  0.33531504  0.54204236    -0.80300
O610        O  0.74791812  0.33446380  0.46140981    -0.80300
O611        O  0.76495369  0.36644664  0.44333793    -0.80400
O612        O  0.73489248  0.36780019  0.55954887    -0.80300
O613        O  0.71626176  0.33122771  0.50255085    -0.80300
O614        O  0.78314968  0.33016513  0.50102181    -0.80400
Co615      Co  0.72631613  0.38707775  0.52843957     1.51500
Co616      Co  0.77444753  0.38601732  0.47382822     1.51700
Co617      Co  0.77694270  0.35641147  0.52549738     1.51600
Co618      Co  0.72303156  0.35670642  0.47748698     1.51500
O619        O  0.75021160  0.37168920  0.50130869    -1.42300
C620        C  0.70053561  0.33765554  0.51893935     1.09300
C621        C  0.79836088  0.33584318  0.48381771     1.09400
C622        C  0.74131468  0.34517091  0.56083615     1.09300
C623        C  0.75788477  0.34398403  0.44230568     1.09300
C624        C  0.02079168  0.51275157  0.49401995     0.02100
C625        C  0.00503132  0.51961460  0.51426346     0.02100
C626        C  0.98421882  0.50449133  0.52080291     0.02100
C627        C  0.97757540  0.48430431  0.50501188     0.02100
C628        C  0.99296781  0.47777536  0.48438472     0.02100
C629        C  0.01393508  0.49277683  0.47811385     0.02100
O630        O  0.80446448  0.63835247  0.01924890    -0.80300
O631        O  0.69654836  0.64153912  0.98014406    -0.80400
O632        O  0.75018296  0.66732621  0.96093904    -0.80400
O633        O  0.75228221  0.66797894  0.03802331    -0.80300
O634        O  0.72898960  0.63678990  0.94452576    -0.80400
O635        O  0.77159235  0.63676416  0.05529943    -0.80300
O636        O  0.71577902  0.67081699  0.00155286    -0.80300
O637        O  0.78663785  0.66841789  0.99786526    -0.80400
C638        C  0.80408656  0.66077062  0.01157470     1.09400
C639        C  0.69846130  0.66412134  0.98715345     1.09200
C640        C  0.73734562  0.65891958  0.94307788     1.09400
C641        C  0.76443913  0.65930933  0.05615471     1.09300
O642        O  0.75054290  0.59033840  0.03650574    -0.80300
O643        O  0.74739282  0.58978341  0.96479903    -0.80400
O644        O  0.80550791  0.62081668  0.97846199    -0.80300
O645        O  0.69422104  0.62483808  0.02114296    -0.80300
O646        O  0.71076545  0.59320620  0.00189769    -0.80400
O647        O  0.78767818  0.59067587  0.99932844    -0.80300
O648        O  0.72986061  0.62091333  0.05431285    -0.80300
O649        O  0.76950342  0.61890868  0.94603506    -0.80400
Co650      Co  0.77609346  0.61431129  0.02515019     1.51500
Co651      Co  0.72332483  0.61542042  0.97528803     1.51700
Co652      Co  0.77556651  0.64373982  0.97332308     1.51600
Co653      Co  0.72545994  0.64575134  0.02632374     1.51500
O654        O  0.75012586  0.62980109  0.00001170    -1.42300
C655        C  0.73689273  0.59825687  0.05410659     1.09300
C656        C  0.76128781  0.59669686  0.94698859     1.09400
C657        C  0.80603624  0.59858326  0.98668791     1.09300
C658        C  0.69262016  0.60235815  0.01384660     1.09300
C659        C  0.51743952  0.49457017  0.01897968     0.02100
C660        C  0.52404532  0.51509288  0.00357105     0.02100
C661        C  0.50883774  0.52137735  0.98295183     0.02100
C662        C  0.48829069  0.50601788  0.97632127     0.02100
C663        C  0.48153185  0.48528707  0.99154241     0.02100
C664        C  0.49715112  0.47881557  0.01204669     0.02100
O665        O  0.78623778  0.16445227  0.00380217    -0.80300
O666        O  0.71636039  0.16354402  0.00123788    -0.80400
O667        O  0.77171272  0.13163472  0.94516048    -0.80400
O668        O  0.73308455  0.12660975  0.05797702    -0.80300
O669        O  0.75228737  0.16261727  0.96265326    -0.80400
O670        O  0.75091133  0.15932314  0.04204660    -0.80300
O671        O  0.69955967  0.13294619  0.02323363    -0.80300
O672        O  0.80475201  0.13633416  0.98008852    -0.80400
C673        C  0.80372924  0.15830245  0.98913914     1.09400
C674        C  0.70042364  0.15583789  0.01698888     1.09200
C675        C  0.76474293  0.15416720  0.94441998     1.09400
C676        C  0.73959631  0.14926668  0.06013552     1.09300
O677        O  0.77391541  0.11023753  0.05290441    -0.80300
O678        O  0.73110189  0.11425234  0.94778484    -0.80400
O679        O  0.79230878  0.08702955  0.00018080    -0.80300
O680        O  0.71395551  0.08598588  0.99907862    -0.80300
O681        O  0.69587078  0.11762836  0.98145023    -0.80400
O682        O  0.80859313  0.11825121  0.02026164    -0.80300
O683        O  0.75141430  0.08184199  0.03341707    -0.80300
O684        O  0.75376375  0.08458064  0.96501628    -0.80400
Co685      Co  0.77731978  0.13797835  0.02745069     1.51500
Co686      Co  0.72642960  0.13925278  0.97564278     1.51700
Co687      Co  0.77822808  0.10998514  0.97513898     1.51600
Co688      Co  0.72675332  0.10728337  0.02596856     1.51500
O689        O  0.75216785  0.12378055  0.00102176    -1.42300
C690        C  0.76678361  0.08770055  0.05010599     1.09300
C691        C  0.73911916  0.09187145  0.94807775     1.09400
C692        C  0.81042756  0.09617877  0.01212856     1.09300
C693        C  0.69542735  0.09486036  0.98780541     1.09300
O694        O  0.36248177  0.52585625  0.70061400    -0.80300
O695        O  0.36134087  0.47386921  0.80063506    -0.80400
O696        O  0.33593742  0.45972490  0.74774546    -0.80400
O697        O  0.33674355  0.54009249  0.75305955    -0.80300
O698        O  0.36782112  0.44183517  0.76537337    -0.80400
O699        O  0.36930438  0.55774053  0.73631686    -0.80300
O700        O  0.33226336  0.49822518  0.78460552    -0.80300
O701        O  0.33280449  0.50149903  0.71605384    -0.80400
C702        C  0.33984075  0.51848510  0.70117512     1.09400
C703        C  0.33866689  0.48104897  0.79952683     1.09200
C704        C  0.34529040  0.44079656  0.75823800     1.09400
C705        C  0.34661104  0.55902088  0.74296375     1.09300
O706        O  0.41440229  0.53300069  0.75224253    -0.80300
O707        O  0.41379642  0.46581834  0.74901011    -0.80400
O708        O  0.37844470  0.48531028  0.69257914    -0.80300
O709        O  0.37760528  0.51399292  0.80860384    -0.80300
O710        O  0.41014181  0.49745328  0.79093665    -0.80400
O711        O  0.41063732  0.50164178  0.71079808    -0.80300
O712        O  0.38549446  0.54954749  0.77676961    -0.80300
O713        O  0.38448941  0.44956144  0.72498629    -0.80400
Co714      Co  0.38892171  0.52683178  0.72710516     1.51500
Co715      Co  0.38815603  0.47249094  0.77433644     1.51700
Co716      Co  0.35815969  0.47618611  0.72309995     1.51600
Co717      Co  0.35818581  0.52336975  0.77798163     1.51500
O718        O  0.37320409  0.49970570  0.75062623    -1.42300
C719        C  0.40807043  0.54825746  0.76907168     1.09300
C720        C  0.40691538  0.45006945  0.73286740     1.09400
C721        C  0.40120757  0.49167515  0.69167115     1.09300
C722        C  0.40042232  0.50812407  0.80966715     1.09300
O723        O  0.77027048  0.88441676  0.44783740    -0.80300
O724        O  0.72910522  0.88294662  0.55398639    -0.80400
O725        O  0.71033827  0.91101594  0.50237054    -0.80400
O726        O  0.78919765  0.90998129  0.49982585    -0.80300
O727        O  0.69332777  0.87940039  0.52143176    -0.80400
O728        O  0.80536578  0.87841843  0.48011227    -0.80300
O729        O  0.75136871  0.91244839  0.53577421    -0.80300
O730        O  0.74836428  0.91395428  0.46636201    -0.80400
C731        C  0.76388941  0.90720961  0.44984301     1.09400
C732        C  0.73669508  0.90543770  0.55289556     1.09200
C733        C  0.69222249  0.90206095  0.51466396     1.09400
C734        C  0.80704925  0.90087532  0.48735489     1.09300
O735        O  0.78343389  0.83225199  0.49843741    -0.80300
O736        O  0.71437813  0.83333989  0.50124022    -0.80400
O737        O  0.72910294  0.86843864  0.44456437    -0.80300
O738        O  0.76979586  0.86547584  0.55616000    -0.80300
O739        O  0.75006314  0.83485775  0.53828355    -0.80400
O740        O  0.74746658  0.83619906  0.46074088    -0.80300
O741        O  0.80251859  0.86115767  0.52057665    -0.80300
O742        O  0.69592788  0.86329063  0.48011046    -0.80400
Co743      Co  0.77411624  0.85796810  0.47417268     1.51500
Co744      Co  0.72410985  0.85785526  0.52640780     1.51700
Co745      Co  0.72331041  0.88886389  0.47578737     1.51600
Co746      Co  0.77584152  0.88718637  0.52569727     1.51500
O747        O  0.74933639  0.87310162  0.50051376    -1.42300
C748        C  0.80114206  0.83884929  0.51250197     1.09300
C749        C  0.69702349  0.84066362  0.48724438     1.09400
C750        C  0.73583485  0.84584998  0.44269767     1.09300
C751        C  0.76215866  0.84308949  0.55661579     1.09300
O752        O  0.08640932  0.53662227  0.25141282    -0.80300
O753        O  0.08623034  0.46617285  0.24922494    -0.80400
O754        O  0.12023992  0.52122953  0.19426028    -0.80400
O755        O  0.12027941  0.48113377  0.30618955    -0.80300
O756        O  0.08866679  0.50207715  0.21129254    -0.80400
O757        O  0.08855833  0.50060826  0.28999751    -0.80300
O758        O  0.11574795  0.44794472  0.27126691    -0.80300
O759        O  0.11649270  0.55420234  0.22949867    -0.80400
C760        C  0.09394241  0.55385220  0.23710081     1.09400
C761        C  0.09318666  0.44920617  0.26396746     1.09200
C762        C  0.09763186  0.51414532  0.19305598     1.09400
C763        C  0.09787197  0.48847089  0.30799268     1.09300
O764        O  0.13653616  0.52213885  0.30334350    -0.80300
O765        O  0.13671389  0.48037944  0.19692100    -0.80400
O766        O  0.16426620  0.53940367  0.25100162    -0.80300
O767        O  0.16408472  0.46240624  0.24952114    -0.80300
O768        O  0.13274693  0.44526895  0.23025171    -0.80400
O769        O  0.13319779  0.55714742  0.27031091    -0.80300
O770        O  0.16656491  0.50014790  0.28589117    -0.80300
O771        O  0.16653026  0.50174384  0.21532474    -0.80400
Co772      Co  0.11131484  0.52659732  0.27628620     1.51500
Co773      Co  0.11129106  0.47591774  0.22433289     1.51700
Co774      Co  0.14165939  0.52678026  0.22497307     1.51600
Co775      Co  0.14145997  0.47526475  0.27566359     1.51500
O776        O  0.12633153  0.50112968  0.25036984    -1.42300
C777        C  0.15922339  0.51531741  0.30249417     1.09300
C778        C  0.15929450  0.48767038  0.19793798     1.09400
C779        C  0.15569439  0.55795150  0.26271050     1.09300
C780        C  0.15525570  0.44413734  0.23756144     1.09300
C781        C  0.51744696  0.50895674  0.47980101     0.02100
C782        C  0.49651854  0.52405640  0.48622592     0.02100
C783        C  0.48060273  0.51676351  0.50629089     0.02100
C784        C  0.48707025  0.49617511  0.52171048     0.02100
C785        C  0.50795468  0.48109516  0.51532564     0.02100
C786        C  0.52383292  0.48818783  0.49518116     0.02100
C787        C  0.01220599  0.50595520  0.02354596     0.02100
C788        C  0.01917571  0.48497917  0.00855393     0.02100
C789        C  0.00400032  0.47780774  0.98795913     0.02100
C790        C  0.98354474  0.49309825  0.98084593     0.02100
C791        C  0.97614886  0.51362243  0.99591186     0.02100
C792        C  0.99111859  0.52089666  0.01664958     0.02100
C793        C  0.04977543  0.53363465  0.07815912    -0.27800
C794        C  0.04790035  0.51443883  0.09606301     0.01800
C795        C  0.03492834  0.49250545  0.08942211     0.29900
C796        C  0.02356811  0.49038414  0.06599245    -0.19600
C797        C  0.02512303  0.50960529  0.04821110    -0.29000
C798        C  0.03874304  0.53129260  0.05437492     0.43900
C799        C  0.05995389  0.51688490  0.12128294     0.05100
O800        O  0.03358051  0.47270248  0.10555456    -0.57500
H801        H  0.01344197  0.47345007  0.06160434     0.18000
O802        O  0.04209842  0.54981171  0.03699755    -0.64200
H803        H  0.05977493  0.55060893  0.08260997     0.16500
C804        C  0.08507245  0.52441260  0.12381068     0.28700
C805        C  0.09646805  0.52473301  0.14738783    -0.25100
C806        C  0.08356143  0.51706239  0.16905725    -0.24400
C807        C  0.05821653  0.51021863  0.16664318     0.40200
C808        C  0.04663611  0.51046922  0.14309419    -0.26900
O809        O  0.09908315  0.53052381  0.10323170    -0.58800
H810        H  0.11595168  0.53003578  0.14845301     0.15800
O811        O  0.04452450  0.50313064  0.18711433    -0.60200
H812        H  0.02717186  0.50513924  0.14183966     0.14300
H813        H  0.03510992  0.56518370  0.04457106     0.46100
H814        H  0.10669871  0.51463475  0.09762400     0.41500
H815        H  0.04510192  0.48464917  0.18718285     0.45000
H816        H  0.04896644  0.46292022  0.10239961     0.36400
C817        C  0.45223907  0.49591983  0.64145726    -0.27800
C818        C  0.43901134  0.48933427  0.61975937     0.01800
C819        C  0.41374793  0.48228337  0.62233514     0.29900
C820        C  0.40225168  0.48215998  0.64590120    -0.19600
C821        C  0.41517776  0.48963290  0.66750001    -0.29000
C822        C  0.44050057  0.49654642  0.66498150     0.43900
C823        C  0.45138905  0.49072569  0.59458537     0.05100
O824        O  0.39976090  0.47625302  0.60183186    -0.57500
H825        H  0.38272867  0.47696958  0.64703805     0.18000
O826        O  0.45401903  0.50406732  0.68529334    -0.64200
H827        H  0.47179269  0.50090837  0.64018146     0.16500
C828        C  0.46531490  0.51191887  0.58740802     0.28700
C829        C  0.47660417  0.51305514  0.56378770    -0.25100
C830        C  0.47428942  0.49345244  0.54657452    -0.24400
C831        C  0.45993254  0.47243891  0.55337354     0.40200
C832        C  0.44885736  0.47112533  0.57725214    -0.26900
O833        O  0.46694095  0.53222802  0.60287098    -0.58800
H834        H  0.48722230  0.52954337  0.55878331     0.15800
O835        O  0.45572297  0.45370190  0.53647195    -0.60200
H836        H  0.43823451  0.45464643  0.58220062     0.14300
H837        H  0.45274622  0.52251724  0.68541965     0.46100
H838        H  0.48451650  0.53265688  0.60858971     0.41500
H839        H  0.46205397  0.43822331  0.54434032     0.45000
H840        H  0.39232697  0.49220216  0.59619486     0.36400
C841        C  0.47021989  0.49586376  0.90856801    -0.27800
C842        C  0.45388882  0.51577870  0.90383507     0.01800
C843        C  0.44903644  0.53291415  0.92333467     0.29900
C844        C  0.45994370  0.52958601  0.94693714    -0.19600
C845        C  0.47606210  0.50948715  0.95151238    -0.29000
C846        C  0.48130626  0.49274087  0.93200230     0.43900
C847        C  0.44093296  0.51717250  0.87911670     0.05100
O848        O  0.43376908  0.55304357  0.91953769    -0.57500
H849        H  0.45582419  0.54273801  0.96169787     0.18000
O850        O  0.49798338  0.47367719  0.93552457    -0.64200
H851        H  0.47407469  0.48223997  0.89416780     0.16500
C852        C  0.45381514  0.51308715  0.85640074     0.28700
C853        C  0.44062111  0.51036177  0.83392702    -0.25100
C854        C  0.41449046  0.51243640  0.83333381    -0.24400
C855        C  0.40181645  0.51828357  0.85584450     0.40200
C856        C  0.41495324  0.52032428  0.87830904    -0.26900
O857        O  0.47935087  0.51146539  0.85596362    -0.58800
H858        H  0.45090269  0.50658622  0.81691493     0.15800
O859        O  0.37640989  0.52147077  0.85638042    -0.60200
H860        H  0.40450019  0.52333517  0.89536840     0.14300
H861        H  0.48812066  0.45812066  0.93398673     0.46100
H862        H  0.48529810  0.52889647  0.85414337     0.41500
H863        H  0.36943742  0.50485348  0.86060233     0.45000
H864        H  0.44501626  0.56660284  0.91381232     0.36400
C865        C  0.90689240  0.52882112  0.00349731    -0.27800
C866        C  0.90309463  0.54837022  0.98639051     0.01800
C867        C  0.92372502  0.55617680  0.97170912     0.29900
C868        C  0.94725461  0.54452176  0.97433774    -0.19600
C869        C  0.95097010  0.52550784  0.99200656    -0.29000
C870        C  0.93042080  0.51769160  0.00649348     0.43900
C871        C  0.87793425  0.56105497  0.98551182     0.05100
O872        O  0.92155321  0.57624413  0.95600127    -0.57500
H873        H  0.96278231  0.55076787  0.96294167     0.18000
O874        O  0.93309007  0.49879062  0.02349487    -0.64200
H875        H  0.89149064  0.52223220  0.01488587     0.16500
C876        C  0.86502324  0.56583023  0.96297972     0.28700
C877        C  0.84152659  0.57781845  0.96332587    -0.25100
C878        C  0.82991281  0.58428871  0.98597546    -0.24400
C879        C  0.84248215  0.57902793  0.00838491     0.40200
C880        C  0.86617062  0.56783394  0.00803390    -0.26900
O881        O  0.87487815  0.55849291  0.94053080    -0.58800
H882        H  0.83221155  0.58177734  0.94587171     0.15800
O883        O  0.83235930  0.58610912  0.03081800    -0.60200
H884        H  0.87555108  0.56466224  0.02560629     0.14300
H885        H  0.93702845  0.50719529  0.03947135     0.46100
H886        H  0.87015817  0.54069585  0.93878719     0.41500
H887        H  0.82296819  0.57133941  0.03682635     0.45000
H888        H  0.92406368  0.56951661  0.93895334     0.36400
C889        C  0.64295255  0.55108346  0.01128792    -0.27800
C890        C  0.62069544  0.56480223  0.01403800     0.01800
C891        C  0.62261155  0.59070604  0.01838991     0.29900
C892        C  0.64612971  0.60226632  0.01967504    -0.19600
C893        C  0.66831934  0.58871140  0.01582388    -0.29000
C894        C  0.66644497  0.56282449  0.01156896     0.43900
C895        C  0.59576968  0.55209826  0.01153945     0.05100
O896        O  0.60162099  0.60517789  0.02048521    -0.57500
H897        H  0.64686932  0.62224024  0.02254256     0.18000
O898        O  0.68744421  0.54872222  0.00774466    -0.64200
H899        H  0.64219265  0.53109806  0.00859258     0.16500
C900        C  0.59110127  0.53524333  0.99184723     0.28700
C901        C  0.56780754  0.52342865  0.98983324    -0.25100
C902        C  0.54847654  0.52829187  0.00686114    -0.24400
C903        C  0.55276509  0.54542426  0.02624121     0.40200
C904        C  0.57630872  0.55686453  0.02870544    -0.26900
O905        O  0.60878613  0.53108541  0.97373884    -0.58800
H906        H  0.56476619  0.51036916  0.97474155     0.15800
O907        O  0.53417275  0.55092847  0.04297569    -0.60200
H908        H  0.57935848  0.56944220  0.04418336     0.14300
H909        H  0.68896352  0.54706759  0.98937002     0.46100
H910        H  0.61434763  0.51362830  0.97618798     0.41500
H911        H  0.52495058  0.56506468  0.03544599     0.45000
H912        H  0.59710991  0.60963931  0.00313021     0.36400
C913        C  0.08516801  0.47742637  0.37734161    -0.27800
C914        C  0.05987640  0.48371128  0.37957608     0.01800
C915        C  0.04665656  0.49018872  0.35775833     0.29900
C916        C  0.05891248  0.49113346  0.33451459    -0.19600
C917        C  0.08442730  0.48540374  0.33234798    -0.29000
C918        C  0.09743154  0.47824287  0.35421659     0.43900
C919        C  0.04811739  0.48528594  0.40490005     0.05100
O920        O  0.02176061  0.49596811  0.35897603    -0.57500
H921        H  0.04844165  0.49661179  0.31817572     0.18000
O922        O  0.12243277  0.47274353  0.35352414    -0.64200
H923        H  0.09584517  0.47281638  0.39381657     0.16500
C924        C  0.04978854  0.46563091  0.42238662     0.28700
C925        C  0.03934384  0.46825373  0.44640037    -0.25100
C926        C  0.02669750  0.49017224  0.45326429    -0.24400
C927        C  0.02510841  0.50973477  0.43573342     0.40200
C928        C  0.03594417  0.50732026  0.41205807    -0.26900
O929        O  0.06056683  0.44339665  0.41577642    -0.58800
H930        H  0.04073197  0.45296610  0.45951636     0.15800
O931        O  0.01263545  0.53130971  0.44146671    -0.60200
H932        H  0.03481018  0.52283848  0.39918046     0.14300
H933        H  0.13106406  0.48872963  0.35706095     0.46100
H934        H  0.07660799  0.44279722  0.42491179     0.41500
H935        H  0.99479662  0.52761747  0.43825377     0.45000
H936        H  0.01295472  0.47971247  0.35834531     0.36400
C937        C  0.57852563  0.44801175  0.47222578    -0.27800
C938        C  0.59572382  0.45105930  0.49179624     0.01800
C939        C  0.58898416  0.46622027  0.51216869     0.29900
C940        C  0.56584788  0.47839303  0.51251076    -0.19600
C941        C  0.54868749  0.47551243  0.49293894    -0.29000
C942        C  0.55512133  0.45999170  0.47273329     0.43900
C943        C  0.62035562  0.43796435  0.49123791     0.05100
O944        O  0.60468266  0.46882787  0.53214360    -0.57500
H945        H  0.56108561  0.48998119  0.52837400     0.18000
O946        O  0.53829343  0.45565580  0.45400642    -0.64200
H947        H  0.58323509  0.43626127  0.45648467     0.16500
C948        C  0.62171380  0.41186284  0.48885488     0.28700
C949        C  0.64493831  0.39979167  0.48929975    -0.25100
C950        C  0.66736480  0.41326915  0.49204538    -0.24400
C951        C  0.66601921  0.43945594  0.49417463     0.40200
C952        C  0.64271586  0.45154706  0.49371438    -0.26900
O953        O  0.60032985  0.39783989  0.48740219    -0.58800
H954        H  0.64528896  0.37964255  0.48793404     0.15800
O955        O  0.68734033  0.45349246  0.49607911    -0.60200
H956        H  0.64209862  0.47167216  0.49529105     0.14300
H957        H  0.54602335  0.46261326  0.43866985     0.46100
H958        H  0.59890199  0.39305892  0.46960456     0.41500
H959        H  0.68928932  0.45681634  0.51415503     0.45000
H960        H  0.59922539  0.45593010  0.54427663     0.36400
C961        C  0.87997006  0.40890980  0.51058547    -0.27800
C962        C  0.88125827  0.43495726  0.51216012     0.01800
C963        C  0.85883729  0.44872043  0.51329380     0.29900
C964        C  0.83566682  0.43648262  0.51222124    -0.19600
C965        C  0.83436187  0.41040386  0.51046165    -0.29000
C966        C  0.85689361  0.39663313  0.50970002     0.43900
C967        C  0.90598848  0.44764942  0.51114998     0.05100
O968        O  0.85937508  0.47419299  0.51540399    -0.57500
H969        H  0.81867945  0.44738974  0.51299412     0.18000
O970        O  0.85667423  0.37114738  0.50740922    -0.64200
H971        H  0.89696726  0.39804301  0.50934596     0.16500
C972        C  0.92524603  0.44184704  0.52809985     0.28700
C973        C  0.94846951  0.45395192  0.52633828    -0.25100
C974        C  0.95287988  0.47172798  0.50763139    -0.24400
C975        C  0.93377218  0.47729042  0.49055422     0.40200
C976        C  0.91053407  0.46546679  0.49252585    -0.26900
O977        O  0.92151580  0.42447678  0.54650609    -0.58800
H978        H  0.96308727  0.44941088  0.53946726     0.15800
O979        O  0.93742446  0.49513615  0.47254103    -0.60200
H980        H  0.89606504  0.47005084  0.47923877     0.14300
H981        H  0.85630074  0.36788972  0.48920057     0.46100
H982        H  0.91355908  0.43374074  0.56040844     0.41500
H983        H  0.93682005  0.48612847  0.45641758     0.45000
H984        H  0.86237987  0.47750136  0.53333929     0.36400
C985        C  0.74606357  0.77582401  0.65857236    -0.27800
C986        C  0.76362334  0.79461892  0.65330965     0.01800
C987        C  0.77887414  0.80345194  0.67288720     0.29900
C988        C  0.77627787  0.79355370  0.69710383    -0.19600
C989        C  0.75835989  0.77514330  0.70219885    -0.29000
C990        C  0.74324945  0.76630493  0.68270563     0.43900
C991        C  0.76406023  0.80603334  0.62785844     0.05100
O992        O  0.79524011  0.82274852  0.66888010    -0.57500
H993        H  0.78815166  0.80034646  0.71190662     0.18000
O994        O  0.72614471  0.74770699  0.68698310    -0.64200
H995        H  0.73424204  0.76863616  0.64388093     0.16500
C996        C  0.78626621  0.80890992  0.61379361     0.28700
C997        C  0.78560696  0.82059304  0.59022973    -0.25100
C998        C  0.76292713  0.82881299  0.58016438    -0.24400
C999        C  0.74072996  0.82502582  0.59374504     0.40200
C1000       C  0.74142720  0.81400060  0.61737028    -0.26900
O1001       O  0.80836300  0.79932296  0.62238990    -0.58800
H1002       H  0.80277687  0.82311606  0.57976842     0.15800
O1003       O  0.71832589  0.83327214  0.58461763    -0.60200
H1004       H  0.72414713  0.81203256  0.62776480     0.14300
H1005       H  0.71043132  0.75641676  0.69139188     0.46100
H1006       H  0.81975956  0.81378167  0.62424146     0.41500
H1007       H  0.71153359  0.81907108  0.57494194     0.45000
H1008       H  0.81210515  0.81557995  0.67136734     0.36400
C1009       C  0.72920458  0.68973170  0.82378681    -0.27800
C1010       C  0.73271429  0.70524985  0.84471233     0.01800
C1011       C  0.73742298  0.73082048  0.84052017     0.29900
C1012       C  0.74000638  0.74000852  0.81618446    -0.19600
C1013       C  0.73697198  0.72446958  0.79531118    -0.29000
C1014       C  0.73057041  0.69927214  0.79932592     0.43900
C1015       C  0.73253117  0.69459828  0.87064776     0.05100
O1016       O  0.73969985  0.74709880  0.86009669    -0.57500
H1017       H  0.74465080  0.75950679  0.81357375     0.18000
O1018       O  0.72652215  0.68364914  0.77950694    -0.64200
H1019       H  0.72586015  0.66998412  0.82628557     0.16500
C1020       C  0.71417629  0.67738457  0.87859301     0.28700
C1021       C  0.71551104  0.66661159  0.90247491    -0.25100
C1022       C  0.73465635  0.67301784  0.91920938    -0.24400
C1023       C  0.75231865  0.69107317  0.91169514     0.40200
C1024       C  0.75142639  0.70126899  0.88759339    -0.26900
O1025       O  0.69444264  0.67151145  0.86343932    -0.58800
H1026       H  0.70147957  0.65306244  0.90789860     0.15800
O1027       O  0.77151370  0.69781524  0.92713558    -0.60200
H1028       H  0.76607135  0.71403835  0.88194606     0.14300
H1029       H  0.70864305  0.67894985  0.78050769     0.46100
H1030       H  0.69700975  0.65385965  0.85855024     0.41500
H1031       H  0.76524434  0.71250566  0.93646449     0.45000
H1032       H  0.72234161  0.75155830  0.86476667     0.36400
C1033       C  0.75515580  0.21654868  0.16122123    -0.27800
C1034       C  0.73442081  0.20153693  0.15561468     0.01800
C1035       C  0.71579674  0.19832227  0.17411231     0.29900
C1036       C  0.71837543  0.20959117  0.19772047    -0.19600
C1037       C  0.73925964  0.22449843  0.20321059    -0.29000
C1038       C  0.75749757  0.22811482  0.18452382     0.43900
C1039       C  0.73324325  0.18860580  0.13084475     0.05100
O1040       O  0.69497478  0.18426699  0.16928193    -0.57500
H1041       H  0.70409469  0.20663900  0.21177027     0.18000
O1042       O  0.77786719  0.24296199  0.18892581    -0.64200
H1043       H  0.76986026  0.21909609  0.14753440     0.16500
C1044       C  0.73642680  0.20178902  0.10824786     0.28700
C1045       C  0.73784916  0.18893125  0.08537529    -0.25100
C1046       C  0.73615681  0.16277482  0.08439046    -0.24400
C1047       C  0.73230384  0.14968025  0.10703219     0.40200
C1048       C  0.73081233  0.16255653  0.12981745    -0.26900
O1049       O  0.73758618  0.22734511  0.10830709    -0.58800
H1050       H  0.74046455  0.19950877  0.06835118     0.15800
O1051       O  0.73067543  0.12416149  0.10732486    -0.60200
H1052       H  0.72864630  0.15198678  0.14691220     0.14300
H1053       H  0.77229351  0.26014069  0.18504458     0.46100
H1054       H  0.75527465  0.23151993  0.10469573     0.41500
H1055       H  0.74810523  0.11822026  0.10910148     0.45000
H1056       H  0.68247494  0.19624859  0.16284513     0.36400
C1057       C  0.75638509  0.33185976  0.37267944    -0.27800
C1058       C  0.76037259  0.30607337  0.37120590     0.01800
C1059       C  0.76378049  0.29249913  0.39355361     0.29900
C1060       C  0.76269649  0.30480595  0.41677007    -0.19600
C1061       C  0.75878346  0.33066930  0.41803658    -0.29000
C1062       C  0.75563258  0.34411132  0.39563038     0.43900
C1063       C  0.76044494  0.29407899  0.34607265     0.05100
O1064       O  0.76947577  0.26756418  0.39278988    -0.57500
H1065       H  0.76552468  0.29423307  0.43374133     0.18000
O1066       O  0.75134216  0.36932661  0.39589022    -0.64200
H1067       H  0.75342195  0.34263049  0.35585266     0.16500
C1068       C  0.74503312  0.27343084  0.34072816     0.28700
C1069       C  0.74400322  0.26386654  0.31646093    -0.25100
C1070       C  0.75722597  0.27521144  0.29687851    -0.24400
C1071       C  0.77236091  0.29598204  0.30195467     0.40200
C1072       C  0.77420511  0.30501304  0.32643468    -0.26900
O1073       O  0.73001702  0.26312702  0.35875994    -0.58800
H1074       H  0.73212345  0.24794414  0.31269129     0.15800
O1075       O  0.78533243  0.30759990  0.28317329    -0.60200
H1076       H  0.78601620  0.32101992  0.33000667     0.14300
H1077       H  0.73293813  0.37110873  0.39689776     0.46100
H1078       H  0.71416108  0.27260916  0.35794390     0.41500
H1079       H  0.77456292  0.32161352  0.27783870     0.45000
H1080       H  0.75548017  0.25894794  0.40138199     0.36400
C1081       C  0.70127348  0.48222491  0.35702246    -0.27800
C1082       C  0.69914916  0.45688638  0.36343937     0.01800
C1083       C  0.68667338  0.44059472  0.34698097     0.29900
C1084       C  0.67450220  0.44998688  0.32607872    -0.19600
C1085       C  0.67549351  0.47541422  0.32031692    -0.29000
C1086       C  0.68979139  0.49148071  0.33539732     0.43900
C1087       C  0.70740795  0.44764652  0.38823487     0.05100
O1088       O  0.68523194  0.41551585  0.35183130    -0.57500
H1089       H  0.66352877  0.43739878  0.31476907     0.18000
O1090       O  0.69060101  0.51657402  0.33056630    -0.64200
H1091       H  0.71061410  0.49509483  0.36944287     0.16500
C1092       C  0.73179121  0.45134572  0.39733809     0.28700
C1093       C  0.73941306  0.43925516  0.41932442    -0.25100
C1094       C  0.72298826  0.42331753  0.43226364    -0.24400
C1095       C  0.69816634  0.42109709  0.42397973     0.40200
C1096       C  0.69054609  0.43349828  0.40245137    -0.26900
O1097       O  0.74883459  0.46496191  0.38387971    -0.58800
H1098       H  0.75865731  0.44095210  0.42523148     0.15800
O1099       O  0.68166663  0.40543213  0.43583447    -0.60200
H1100       H  0.67148006  0.43108570  0.39620179     0.14300
H1101       H  0.70531815  0.51892074  0.31953540     0.46100
H1102       H  0.75022979  0.48111286  0.39276763     0.41500
H1103       H  0.66713573  0.41590636  0.44048228     0.45000
H1104       H  0.70013197  0.40819563  0.34363975     0.36400
C1105       C  0.71968331  0.57785485  0.11972296    -0.27800
C1106       C  0.71785556  0.55193621  0.11708206     0.01800
C1107       C  0.72377502  0.54103310  0.09386798     0.29900
C1108       C  0.73033491  0.55614736  0.07348698    -0.19600
C1109       C  0.73100855  0.58221950  0.07588137    -0.29000
C1110       C  0.72632508  0.59293444  0.09952856     0.43900
C1111       C  0.70651732  0.53726585  0.13769268     0.05100
O1112       O  0.72259129  0.51568630  0.09076281    -0.57500
H1113       H  0.73427315  0.54750724  0.05564729     0.18000
O1114       O  0.72785995  0.61821689  0.10314475    -0.64200
H1115       H  0.71500136  0.58660504  0.13733892     0.16500
C1116       C  0.71508248  0.53934645  0.16249749     0.28700
C1117       C  0.70071505  0.52968672  0.18222529    -0.25100
C1118       C  0.67775337  0.51812242  0.17743578    -0.24400
C1119       C  0.67014621  0.51450363  0.15260001     0.40200
C1120       C  0.68453984  0.52390396  0.13297745    -0.26900
O1121       O  0.73681947  0.55179882  0.16771193    -0.58800
H1122       H  0.70682248  0.53240128  0.20125731     0.15800
O1123       O  0.64838999  0.50204910  0.14736495    -0.60200
H1124       H  0.67763332  0.52210201  0.11410111     0.14300
H1125       H  0.74545842  0.62140686  0.10788266     0.46100
H1126       H  0.75033677  0.53971715  0.16405185     0.41500
H1127       H  0.63575752  0.51521728  0.14449241     0.45000
H1128       H  0.73898582  0.50937295  0.09647697     0.36400
C1129       C  0.57923166  0.46864837  0.12492537    -0.27800
C1130       C  0.56290873  0.48794510  0.11795562     0.01800
C1131       C  0.55712126  0.50642846  0.13588105     0.29900
C1132       C  0.56750302  0.50545749  0.15987921    -0.19600
C1133       C  0.58438436  0.48661426  0.16657275    -0.29000
C1134       C  0.59009974  0.46803005  0.14878289     0.43900
C1135       C  0.55165266  0.48852726  0.09229813     0.05100
O1136       O  0.54184898  0.52604055  0.12997259    -0.57500
H1137       H  0.56310482  0.52019775  0.17297667     0.18000
O1138       O  0.60584210  0.44879647  0.15471549    -0.64200
H1139       H  0.58355844  0.45388062  0.11184564     0.16500
C1140       C  0.56618938  0.48530070  0.07043336     0.28700
C1141       C  0.55498207  0.48634337  0.04671313    -0.25100
C1142       C  0.52936077  0.49139599  0.04415718    -0.24400
C1143       C  0.51490897  0.49468122  0.06594179     0.40200
C1144       C  0.52595445  0.49291034  0.08958325    -0.26900
O1145       O  0.59149265  0.48184572  0.07195205    -0.58800
H1146       H  0.56645715  0.48377491  0.03024578     0.15800
O1147       O  0.49018026  0.50115657  0.06416726    -0.60200
H1148       H  0.51426837  0.49525428  0.10593560     0.14300
H1149       H  0.62219362  0.45339751  0.14728238     0.46100
H1150       H  0.59877180  0.49885705  0.07145540     0.41500
H1151       H  0.48078996  0.48844629  0.07384181     0.45000
H1152       H  0.55289996  0.53849937  0.12185352     0.36400
C1153       C  0.56523715  0.51851819  0.42695009    -0.27800
C1154       C  0.55010152  0.51578109  0.40566411     0.01800
C1155       C  0.52424519  0.51206527  0.40924198     0.29900
C1156       C  0.51425770  0.51009865  0.43336262    -0.19600
C1157       C  0.52937422  0.51248226  0.45461268    -0.29000
C1158       C  0.55501336  0.51747343  0.45117817     0.43900
C1159       C  0.56134565  0.51622142  0.37993704     0.05100
O1160       O  0.50844972  0.51032717  0.38925804    -0.57500
H1161       H  0.49445586  0.50648515  0.43550684     0.18000
O1162       O  0.57030721  0.52098631  0.47130702    -0.64200
H1163       H  0.58516802  0.52118403  0.42487174     0.16500
C1164       C  0.57851876  0.53483314  0.37252275     0.28700
C1165       C  0.58937620  0.53425176  0.34856744    -0.25100
C1166       C  0.58332694  0.51541280  0.33139059    -0.24400
C1167       C  0.56576670  0.49708447  0.33861511     0.40200
C1168       C  0.55510199  0.49754339  0.36259483    -0.26900
O1169       O  0.58422778  0.55413548  0.38828760    -0.58800
H1170       H  0.60274669  0.54856336  0.34346195     0.15800
O1171       O  0.55956144  0.47800386  0.32276903    -0.60200
H1172       H  0.54233309  0.48275608  0.36786203     0.14300
H1173       H  0.57284109  0.53926113  0.47239050     0.46100
H1174       H  0.60170165  0.55117399  0.39356024     0.41500
H1175       H  0.57184704  0.46462421  0.32619183     0.45000
H1176       H  0.50365320  0.52774695  0.38539288     0.36400
C1177       C  0.70134405  0.39158748  0.26764731    -0.27800
C1178       C  0.68713336  0.36947368  0.26629599     0.01800
C1179       C  0.66088688  0.37154761  0.26524967     0.29900
C1180       C  0.64949331  0.39507403  0.26513743    -0.19600
C1181       C  0.66374764  0.41711729  0.26525104    -0.29000
C1182       C  0.68992168  0.41518236  0.26669417     0.43900
C1183       C  0.69972989  0.34450455  0.26481975     0.05100
O1184       O  0.64612840  0.35071823  0.26337061    -0.57500
H1185       H  0.62934414  0.39601425  0.26380338     0.18000
O1186       O  0.70448896  0.43620274  0.26769576    -0.64200
H1187       H  0.72146435  0.39061135  0.26916000     0.16500
C1188       C  0.71945284  0.34022407  0.24781657     0.28700
C1189       C  0.73011004  0.31642280  0.24565677    -0.25100
C1190       C  0.72173269  0.29641689  0.26034782    -0.24400
C1191       C  0.70228539  0.30056231  0.27758439     0.40200
C1192       C  0.69145974  0.32441789  0.27970215    -0.26900
O1193       O  0.72754012  0.35884489  0.23219270    -0.58800
H1194       H  0.74496114  0.31348294  0.23220053     0.15800
O1195       O  0.69312366  0.28123446  0.29167878    -0.60200
H1196       H  0.67649246  0.32718448  0.29304554     0.14300
H1197       H  0.71018681  0.43905456  0.25031359     0.46100
H1198       H  0.74421673  0.36374502  0.23852339     0.41500
H1199       H  0.69631136  0.28590305  0.30926665     0.45000
H1200       H  0.64440810  0.34766076  0.24522549     0.36400
C1201       C  0.75814923  0.78240410  0.34002549    -0.27800
C1202       C  0.73645576  0.79590270  0.34595425     0.01800
C1203       C  0.71795602  0.79852361  0.32738123     0.29900
C1204       C  0.72141279  0.78793466  0.30360514    -0.19600
C1205       C  0.74295463  0.77409338  0.29797792    -0.29000
C1206       C  0.76139443  0.77146907  0.31646478     0.43900
C1207       C  0.73393573  0.80781342  0.37117397     0.05100
O1208       O  0.69625994  0.81113563  0.33234678    -0.57500
H1209       H  0.70706255  0.79023461  0.28962646     0.18000
O1210       O  0.78232093  0.75743020  0.31187222    -0.64200
H1211       H  0.77288548  0.78048508  0.35364387     0.16500
C1212       C  0.73930118  0.79463022  0.39334629     0.28700
C1213       C  0.73888876  0.80688652  0.41657597    -0.25100
C1214       C  0.73312995  0.83239481  0.41837734    -0.24400
C1215       C  0.72686428  0.84530903  0.39621515     0.40200
C1216       C  0.72739470  0.83308332  0.37307912    -0.26900
O1217       O  0.74439046  0.76957534  0.39255615    -0.58800
H1218       H  0.74347930  0.79640547  0.43320326     0.15800
O1219       O  0.72079250  0.87014376  0.39670700    -0.60200
H1220       H  0.72348560  0.84375563  0.35639863     0.14300
H1221       H  0.79652308  0.76930495  0.31224165     0.46100
H1222       H  0.76232201  0.76803510  0.39683929     0.41500
H1223       H  0.73669443  0.87912757  0.39354778     0.45000
H1224       H  0.68412405  0.79813363  0.33755017     0.36400
C1225       C  0.74869321  0.70034009  0.11187298    -0.27800
C1226       C  0.76808852  0.69462679  0.12851286     0.01800
C1227       C  0.78740089  0.67872859  0.12025439     0.29900
C1228       C  0.78658113  0.66818480  0.09628586    -0.19600
C1229       C  0.76694808  0.67359543  0.07982471    -0.29000
C1230       C  0.74813518  0.69024076  0.08774015     0.43900
C1231       C  0.76750784  0.70484668  0.15450332     0.05100
O1232       O  0.80706424  0.67311688  0.13554262    -0.57500
H1233       H  0.80120255  0.65540895  0.09066448     0.18000
O1234       O  0.72803971  0.69526525  0.07279780    -0.64200
H1235       H  0.73339822  0.71212146  0.11786134     0.16500
C1236       C  0.76289273  0.73034269  0.15893602     0.28700
C1237       C  0.76052728  0.73926339  0.18336862    -0.25100
C1238       C  0.76328572  0.72337772  0.20404640    -0.24400
C1239       C  0.76916875  0.69811250  0.19975802     0.40200
C1240       C  0.77072377  0.68896765  0.17516514    -0.26900
O1241       O  0.76051106  0.74677520  0.13949170    -0.58800
H1242       H  0.75622297  0.75879223  0.18622461     0.15800
O1243       O  0.77258691  0.68212713  0.21943725    -0.60200
H1244       H  0.77408566  0.66927231  0.17228184     0.14300
H1245       H  0.73170396  0.71171231  0.06517296     0.46100
H1246       H  0.77784884  0.75115964  0.13461287     0.41500
H1247       H  0.78951621  0.67499468  0.21726474     0.45000
H1248       H  0.81881464  0.68731270  0.13375081     0.36400
C1249       C  0.70152791  0.67203651  0.21710114    -0.27800
C1250       C  0.70505413  0.65357216  0.23547029     0.01800
C1251       C  0.71911230  0.65977549  0.25678671     0.29900
C1252       C  0.72958280  0.68358926  0.25924983    -0.19600
C1253       C  0.72619527  0.70195142  0.24089960    -0.29000
C1254       C  0.71179540  0.69609469  0.21975233     0.43900
C1255       C  0.69308661  0.62838483  0.23303971     0.05100
O1256       O  0.72236227  0.64284707  0.27566158    -0.57500
H1257       H  0.74048946  0.68780506  0.27569822     0.18000
O1258       O  0.70701802  0.71396826  0.20208479    -0.64200
H1259       H  0.69076135  0.66783055  0.20057896     0.16500
C1260       C  0.66755470  0.62601006  0.22723358     0.28700
C1261       C  0.65616831  0.60247549  0.22697796    -0.25100
C1262       C  0.66944388  0.58072305  0.23331024    -0.24400
C1263       C  0.69517080  0.58293801  0.23836788     0.40200
C1264       C  0.70680558  0.60650361  0.23786132    -0.26900
O1265       O  0.65317468  0.64667351  0.22281515    -0.58800
H1266       H  0.63642956  0.60150260  0.22283160     0.15800
O1267       O  0.70917134  0.56227006  0.24377187    -0.60200
H1268       H  0.72658610  0.60771851  0.24178792     0.14300
H1269       H  0.71417136  0.70752592  0.18627069     0.46100
H1270       H  0.64709177  0.65204424  0.23945328     0.41500
H1271       H  0.70996111  0.56166692  0.26222921     0.45000
H1272       H  0.70773690  0.64509246  0.28682371     0.36400
C1273       C  0.17981059  0.05573234  0.64680446    -0.27800
C1274       C  0.19049288  0.03738828  0.63159381     0.01800
C1275       C  0.19226822  0.01274177  0.64032965     0.29900
C1276       C  0.18198365  0.00651961  0.66358467    -0.19600
C1277       C  0.16964006  0.02467564  0.67792938    -0.29000
C1278       C  0.16926418  0.04953587  0.66971842     0.43900
C1279       C  0.19952162  0.04493364  0.60678223     0.05100
O1280       O  0.20293812  0.99452723  0.62587560    -0.57500
H1281       H  0.18212318  0.98722607  0.66958734     0.18000
O1282       O  0.15752097  0.06766864  0.68341057    -0.64200
H1283       H  0.17907690  0.07494603  0.64058138     0.16500
C1284       C  0.18348809  0.05793054  0.59062462     0.28700
C1285       C  0.19345314  0.07143958  0.57073870    -0.25100
C1286       C  0.21918495  0.07142596  0.56621811    -0.24400
C1287       C  0.23493994  0.05645616  0.58087884     0.40200
C1288       C  0.22504987  0.04342234  0.60123223    -0.26900
O1289       O  0.15818457  0.05829089  0.59485670    -0.58800
H1290       H  0.18116821  0.08288473  0.55963005     0.15800
O1291       O  0.26029451  0.05676226  0.57725186    -0.60200
H1292       H  0.23756067  0.03371373  0.61372978     0.14300
H1293       H  0.17087720  0.07953506  0.68823632     0.46100
H1294       H  0.15431311  0.07542606  0.60060389     0.41500
H1295       H  0.26381590  0.04218098  0.56646658     0.45000
H1296       H  0.18898818  0.98730128  0.61614124     0.36400
C1297       C  0.51702795  0.35229762  0.20860978    -0.27800
C1298       C  0.53818251  0.36580290  0.20100826     0.01800
C1299       C  0.55368990  0.35625747  0.18216906     0.29900
C1300       C  0.54727060  0.33422683  0.17016475    -0.19600
C1301       C  0.52540250  0.32121942  0.17653628    -0.29000
C1302       C  0.51051521  0.33003616  0.19644405     0.43900
C1303       C  0.54469563  0.38983670  0.21250558     0.05100
O1304       O  0.57530810  0.36839068  0.17549551    -0.57500
H1305       H  0.55898938  0.32796265  0.15494140     0.18000
O1306       O  0.48874387  0.31817921  0.20292474    -0.64200
H1307       H  0.50517012  0.35944424  0.22336563     0.16500
C1308       C  0.54583244  0.41156156  0.19776232     0.28700
C1309       C  0.55889822  0.43241737  0.20637505    -0.25100
C1310       C  0.57063730  0.43176151  0.22958071    -0.24400
C1311       C  0.56726212  0.41106477  0.24535720     0.40200
C1312       C  0.55440975  0.39010981  0.23670189    -0.26900
O1313       O  0.53504322  0.41204113  0.17457184    -0.58800
H1314       H  0.56090239  0.44853445  0.19441762     0.15800
O1315       O  0.57829392  0.41034596  0.26837608    -0.60200
H1316       H  0.55365282  0.37345973  0.24813356     0.14300
H1317       H  0.49327682  0.30699260  0.21690710     0.46100
H1318       H  0.54896414  0.41414534  0.16250467     0.41500
H1319       H  0.56565210  0.41725319  0.28002034     0.45000
H1320       H  0.57236230  0.37493262  0.15845661     0.36400
C1321       C  0.64912661  0.18051554  0.05793639    -0.27800
C1322       C  0.63560706  0.19502872  0.04100203     0.01800
C1323       C  0.64564174  0.19967433  0.01713295     0.29900
C1324       C  0.66827930  0.18855137  0.01008812    -0.19600
C1325       C  0.68063923  0.17231335  0.02645915    -0.29000
C1326       C  0.67110128  0.16876075  0.05070293     0.43900
C1327       C  0.61097343  0.20458979  0.04889752     0.05100
O1328       O  0.63294058  0.21398882  0.00022986    -0.57500
H1329       H  0.67520126  0.19119397  0.99125937     0.18000
O1330       O  0.68283423  0.15336724  0.06735397    -0.64200
H1331       H  0.64209246  0.17748570  0.07667582     0.16500
C1332       C  0.59351694  0.18837538  0.06015535     0.28700
C1333       C  0.57324467  0.19812204  0.07321111    -0.25100
C1334       C  0.56924703  0.22387057  0.07404810    -0.24400
C1335       C  0.58518231  0.23996241  0.06065956     0.40200
C1336       C  0.60615098  0.23028416  0.04841031    -0.26900
O1337       O  0.59702077  0.16303901  0.05981376    -0.58800
H1338       H  0.56120629  0.18555998  0.08350018     0.15800
O1339       O  0.58197513  0.26529933  0.06172026    -0.60200
H1340       H  0.61945504  0.24298641  0.03995182     0.14300
H1341       H  0.67314653  0.13759854  0.06721416     0.46100
H1342       H  0.58647724  0.15686738  0.04595956     0.41500
H1343       H  0.57149916  0.26942617  0.04709970     0.45000
H1344       H  0.62177967  0.20221323  0.99136191     0.36400
C1345       C  0.49398163  0.38052876  0.08590456    -0.27800
C1346       C  0.49188603  0.38176405  0.05991281     0.01800
C1347       C  0.49041923  0.35939942  0.04616609     0.29900
C1348       C  0.49110944  0.33624588  0.05844903    -0.19600
C1349       C  0.49300224  0.33499856  0.08453521    -0.29000
C1350       C  0.49458700  0.35749556  0.09821632     0.43900
C1351       C  0.49239298  0.40646957  0.04732135     0.05100
O1352       O  0.48829328  0.36000159  0.02070503    -0.57500
H1353       H  0.48985796  0.31925746  0.04760526     0.18000
O1354       O  0.49813725  0.35719771  0.12354339    -0.64200
H1355       H  0.49566413  0.39753387  0.09667984     0.16500
C1356       C  0.47361685  0.42439804  0.05162652     0.28700
C1357       C  0.47488736  0.44781731  0.03992595    -0.25100
C1358       C  0.49503832  0.45385755  0.02422303    -0.24400
C1359       C  0.51378141  0.43587596  0.01997557     0.40200
C1360       C  0.51231515  0.41243417  0.03136925    -0.26900
O1361       O  0.45398213  0.41919803  0.06726737    -0.58800
H1362       H  0.46021486  0.46130703  0.04318078     0.15800
O1363       O  0.53368939  0.44110150  0.00465851    -0.60200
H1364       H  0.52697744  0.39894105  0.02800375     0.14300
H1365       H  0.48137499  0.36000356  0.13091459     0.46100
H1366       H  0.44152830  0.41056084  0.05671221     0.41500
H1367       H  0.52751409  0.43822651  0.98748662     0.45000
H1368       H  0.47017735  0.36194169  0.01747976     0.36400
C1369       C  0.61211902  0.24153714  0.19541610    -0.27800
C1370       C  0.62749461  0.26276254  0.19346904     0.01800
C1371       C  0.61868943  0.28347810  0.17989530     0.29900
C1372       C  0.59564437  0.28228580  0.16764674    -0.19600
C1373       C  0.58036106  0.26108866  0.16959061    -0.29000
C1374       C  0.58871427  0.24067244  0.18381115     0.43900
C1375       C  0.65296503  0.26262960  0.20475190     0.05100
O1376       O  0.63254753  0.30494001  0.17828304    -0.57500
H1377       H  0.58983191  0.29793051  0.15637482     0.18000
O1378       O  0.57478643  0.21923626  0.18535819    -0.64200
H1379       H  0.61860477  0.22518224  0.20529672     0.16500
C1380       C  0.65675421  0.25429224  0.22939144     0.28700
C1381       C  0.68093583  0.25267313  0.23902247    -0.25100
C1382       C  0.70177032  0.25984510  0.22476921    -0.24400
C1383       C  0.69809261  0.26896912  0.20047943     0.40200
C1384       C  0.67390219  0.27000511  0.19052612    -0.26900
O1385       O  0.63695457  0.24755848  0.24423763    -0.58800
H1386       H  0.68349678  0.24549397  0.25771864     0.15800
O1387       O  0.71801720  0.27631865  0.18613272    -0.60200
H1388       H  0.67156867  0.27616457  0.17144708     0.14300
H1389       H  0.57985990  0.20913098  0.17069922     0.46100
H1390       H  0.63178668  0.26311625  0.25277851     0.41500
H1391       H  0.72087214  0.29403892  0.19053787     0.45000
H1392       H  0.62743757  0.31504096  0.19292189     0.36400
C1393       C  0.63287329  0.07043236  0.96490070    -0.27800
C1394       C  0.62416434  0.05748076  0.98606639     0.01800
C1395       C  0.64013696  0.05534862  0.00686535     0.29900
C1396       C  0.66389112  0.06630838  0.00642695    -0.19600
C1397       C  0.67203882  0.08022801  0.98577655    -0.29000
C1398       C  0.65643805  0.08201825  0.96479294     0.43900
C1399       C  0.59838954  0.04666344  0.98665069     0.05100
O1400       O  0.63237702  0.04343527  0.02817434    -0.57500
H1401       H  0.67547860  0.06502441  0.02289600     0.18000
O1402       O  0.66426189  0.09464662  0.94393266    -0.64200
H1403       H  0.62125961  0.07181710  0.94847652     0.16500
C1404       C  0.57723228  0.06089505  0.97994340     0.28700
C1405       C  0.55313679  0.05058798  0.98181720    -0.25100
C1406       C  0.54964053  0.02630771  0.99095342    -0.24400
C1407       C  0.57070401  0.01214594  0.99764926     0.40200
C1408       C  0.59472797  0.02211589  0.99506910    -0.26900
O1409       O  0.57980453  0.08513452  0.97221503    -0.58800
H1410       H  0.53711688  0.06173830  0.97668660     0.15800
O1411       O  0.56793974  0.98855042  0.00715620    -0.60200
H1412       H  0.61058641  0.01066995  0.00004677     0.14300
H1413       H  0.65690786  0.11152030  0.94546971     0.46100
H1414       H  0.58017095  0.09514146  0.98775715     0.41500
H1415       H  0.56505031  0.99091676  0.02528482     0.45000
H1416       H  0.62359726  0.05635572  0.03808616     0.36400
C1417       C  0.49349053  0.09070796  0.03002145    -0.27800
C1418       C  0.51403019  0.09793346  0.04447758     0.01800
C1419       C  0.53353025  0.08063037  0.04834516     0.29900
C1420       C  0.53179148  0.05636919  0.03869590    -0.19600
C1421       C  0.51107028  0.04917874  0.02449045    -0.29000
C1422       C  0.49211342  0.06676208  0.01980315     0.43900
C1423       C  0.51407715  0.12282398  0.05684789     0.05100
O1424       O  0.55431695  0.08720690  0.06166913    -0.57500
H1425       H  0.54659652  0.04314304  0.04232780     0.18000
O1426       O  0.47191221  0.06055839  0.00544101    -0.64200
H1427       H  0.47818859  0.10352378  0.02700313     0.16500
C1428       C  0.50893132  0.14505336  0.04370059     0.28700
C1429       C  0.50776079  0.16796669  0.05638470    -0.25100
C1430       C  0.51178082  0.16923019  0.08223752    -0.24400
C1431       C  0.51709579  0.14685563  0.09524855     0.40200
C1432       C  0.51817967  0.12413871  0.08257773    -0.26900
O1433       O  0.50491241  0.14461381  0.01847088    -0.58800
H1434       H  0.50362500  0.18475322  0.04596624     0.15800
O1435       O  0.52092552  0.14673291  0.12053198    -0.60200
H1436       H  0.52163359  0.10727822  0.09314562     0.14300
H1437       H  0.47747578  0.06314169  0.98797594     0.46100
H1438       H  0.52178805  0.14428658  0.01081976     0.41500
H1439       H  0.50428816  0.14345622  0.12803280     0.45000
H1440       H  0.56516335  0.09626624  0.04966278     0.36400
C1441       C  0.71800846  0.03834076  0.90727062    -0.27800
C1442       C  0.71945909  0.04962223  0.88360347     0.01800
C1443       C  0.72970449  0.07362761  0.88131868     0.29900
C1444       C  0.73666113  0.08671493  0.90263875    -0.19600
C1445       C  0.73402039  0.07604289  0.92637901    -0.29000
C1446       C  0.72541436  0.05138534  0.92866476     0.43900
C1447       C  0.70506690  0.03915018  0.86270219     0.05100
O1448       O  0.73048947  0.08543303  0.85862996    -0.57500
H1449       H  0.74339837  0.10568067  0.90066106     0.18000
O1450       O  0.72269488  0.04053384  0.95168120    -0.64200
H1451       H  0.70975120  0.01998631  0.90925585     0.16500
C1452       C  0.71597775  0.03327028  0.83950090     0.28700
C1453       C  0.70072377  0.02626848  0.81941398    -0.25100
C1454       C  0.67462136  0.02586888  0.82209463    -0.24400
C1455       C  0.66395393  0.03162320  0.84553356     0.40200
C1456       C  0.67915998  0.03804820  0.86548436    -0.26900
O1457       O  0.74141899  0.03399534  0.83649674    -0.58800
H1458       H  0.70925530  0.02164950  0.80166124     0.15800
O1459       O  0.63858683  0.03123459  0.84919967    -0.60200
H1460       H  0.67054173  0.04300323  0.88312482     0.14300
H1461       H  0.70518908  0.04392747  0.95670915     0.46100
H1462       H  0.74471925  0.04800882  0.82487254     0.41500
H1463       H  0.63528645  0.01616211  0.85936014     0.45000
H1464       H  0.74840217  0.08587517  0.85389037     0.36400
C1465       C  0.71232248  0.97355538  0.65398701    -0.27800
C1466       C  0.69978394  0.96508007  0.63265849     0.01800
C1467       C  0.67363308  0.96432384  0.63243788     0.29900
C1468       C  0.66033684  0.97080377  0.65376432    -0.19600
C1469       C  0.67265034  0.97887177  0.67542185    -0.29000
C1470       C  0.69886005  0.98096571  0.67520379     0.43900
C1471       C  0.71354438  0.95259114  0.61252303     0.05100
O1472       O  0.66101305  0.95529049  0.61211736    -0.57500
H1473       H  0.64018352  0.96916949  0.65332705     0.18000
O1474       O  0.71151049  0.98878786  0.69595356    -0.64200
H1475       H  0.73254063  0.97371981  0.65438633     0.16500
C1476       C  0.71325116  0.96169563  0.58789982     0.28700
C1477       C  0.72203210  0.94664616  0.56839332    -0.25100
C1478       C  0.73026982  0.92235441  0.57332339    -0.24400
C1479       C  0.73152243  0.91378805  0.59810263     0.40200
C1480       C  0.72330752  0.92895261  0.61749284    -0.26900
O1481       O  0.70401433  0.98499505  0.58283290    -0.58800
H1482       H  0.72122815  0.95343698  0.54938046     0.15800
O1483       O  0.74006329  0.89029751  0.60349331    -0.60200
H1484       H  0.72326455  0.92170215  0.63636593     0.14300
H1485       H  0.71433056  0.00688746  0.69336161     0.46100
H1486       H  0.68793176  0.98215066  0.57418769     0.41500
H1487       H  0.75840633  0.89209626  0.60518430     0.45000
H1488       H  0.65323417  0.97009069  0.60424627     0.36400
C1489       C  0.68143815  0.88212375  0.71605602    -0.27800
C1490       C  0.69295800  0.87235256  0.73750859     0.01800
C1491       C  0.69389700  0.88755232  0.75906425     0.29900
C1492       C  0.68336728  0.91155950  0.75897212    -0.19600
C1493       C  0.67103310  0.92082158  0.73786042    -0.29000
C1494       C  0.67037870  0.90593766  0.71620626     0.43900
C1495       C  0.70378615  0.84643529  0.73743114     0.05100
O1496       O  0.70418540  0.87879559  0.78074030    -0.57500
H1497       H  0.68365248  0.92245039  0.77598314     0.18000
O1498       O  0.65870319  0.91439537  0.69513366    -0.64200
H1499       H  0.68087828  0.87121856  0.69908347     0.16500
C1500       C  0.69020563  0.82559884  0.72854894     0.28700
C1501       C  0.70050396  0.80142166  0.72974780    -0.25100
C1502       C  0.72440071  0.79746966  0.73965514    -0.24400
C1503       C  0.73799327  0.81819724  0.74836115     0.40200
C1504       C  0.72781232  0.84229689  0.74706648    -0.26900
O1505       O  0.66628322  0.82846162  0.72000902    -0.58800
H1506       H  0.68959180  0.78566651  0.72338193     0.15800
O1507       O  0.76079189  0.81482720  0.75944500    -0.60200
H1508       H  0.73877477  0.85784059  0.75385508     0.14300
H1509       H  0.67200575  0.92266589  0.68520657     0.46100
H1510       H  0.66735883  0.82602707  0.70170381     0.41500
H1511       H  0.77311469  0.82272223  0.74809142     0.45000
H1512       H  0.69094668  0.86849268  0.78863047     0.36400
C1513       C  0.54688322  0.98958130  0.85887234    -0.27800
C1514       C  0.56090302  0.98411676  0.88039267     0.01800
C1515       C  0.58638295  0.97825080  0.87737834     0.29900
C1516       C  0.59745676  0.97882838  0.85366466    -0.19600
C1517       C  0.58393490  0.98604811  0.83236960    -0.29000
C1518       C  0.55821037  0.99096206  0.83516344     0.43900
C1519       C  0.54933229  0.98611610  0.90587293     0.05100
O1520       O  0.60104194  0.97298690  0.89761167    -0.57500
H1521       H  0.61716694  0.97458254  0.85221130     0.18000
O1522       O  0.54391812  0.99717418  0.81494699    -0.64200
H1523       H  0.52709727  0.99337327  0.86048173     0.16500
C1524       C  0.53516342  0.00724811  0.91260106     0.28700
C1525       C  0.52524490  0.00944041  0.93671734    -0.25100
C1526       C  0.52920159  0.99097864  0.95481601    -0.24400
C1527       C  0.54368055  0.97000751  0.94845633     0.40200
C1528       C  0.55338753  0.96758880  0.92409742    -0.26900
O1529       O  0.53201310  0.02655961  0.89613132    -0.58800
H1530       H  0.51437191  0.02582368  0.94138635     0.15800
O1531       O  0.54910918  0.95232970  0.96612900    -0.60200
H1532       H  0.56418832  0.95116301  0.91950127     0.14300
H1533       H  0.54304934  0.01563788  0.81511522     0.46100
H1534       H  0.51418733  0.02592363  0.89124203     0.41500
H1535       H  0.54208213  0.93645821  0.95976287     0.45000
H1536       H  0.60748711  0.98935171  0.90332007     0.36400
C1537       C  0.53951355  0.59122416  0.28542504    -0.27800
C1538       C  0.54988148  0.61515758  0.28287832     0.01800
C1539       C  0.57309809  0.61826451  0.27110128     0.29900
C1540       C  0.58652648  0.59738272  0.26362164    -0.19600
C1541       C  0.57684940  0.57336443  0.26734003    -0.29000
C1542       C  0.55286045  0.57025378  0.27750253     0.43900
C1543       C  0.53954589  0.63579305  0.29743318     0.05100
O1544       O  0.58389266  0.64140487  0.26920299    -0.57500
H1545       H  0.60501917  0.59990327  0.25578277     0.18000
O1546       O  0.54311378  0.54688292  0.28125199    -0.64200
H1547       H  0.52177625  0.58875876  0.29490185     0.16500
C1548       C  0.52935403  0.65706696  0.28613748     0.28700
C1549       C  0.52204603  0.67728401  0.30093031    -0.25100
C1550       C  0.52516927  0.67653430  0.32693597    -0.24400
C1551       C  0.53572474  0.65506222  0.33801149     0.40200
C1552       C  0.54251925  0.63491405  0.32325085    -0.26900
O1553       O  0.52684394  0.65836309  0.26074148    -0.58800
H1554       H  0.51410158  0.69356803  0.29204766     0.15800
O1555       O  0.53909236  0.65321615  0.36329945    -0.60200
H1556       H  0.55079667  0.61867814  0.33196917     0.14300
H1557       H  0.54670591  0.54285872  0.29892843     0.46100
H1558       H  0.50999757  0.65155243  0.25726889     0.41500
H1559       H  0.55662679  0.65840771  0.36619143     0.45000
H1560       H  0.57949707  0.64743718  0.25230768     0.36400
C1561       C  0.61670126  0.78711140  0.42553814    -0.27800
C1562       C  0.61519317  0.78460386  0.45138306     0.01800
C1563       C  0.59300505  0.77595607  0.46251603     0.29900
C1564       C  0.57248940  0.76987038  0.44756480    -0.19600
C1565       C  0.57382983  0.77280565  0.42155904    -0.29000
C1566       C  0.59636534  0.78146852  0.41062055     0.43900
C1567       C  0.63566977  0.79512617  0.46606038     0.05100
O1568       O  0.59105065  0.77401108  0.48793557    -0.57500
H1569       H  0.55546093  0.76326027  0.45631348     0.18000
O1570       O  0.59877252  0.78496316  0.38536331    -0.64200
H1571       H  0.63352898  0.79442629  0.41690402     0.16500
C1572       C  0.66015224  0.78583237  0.46370320     0.28700
C1573       C  0.68033013  0.80026965  0.47179263    -0.25100
C1574       C  0.67613417  0.82407890  0.48167998    -0.24400
C1575       C  0.65157266  0.83260230  0.48539738     0.40200
C1576       C  0.63151031  0.81798011  0.47785312    -0.26900
O1577       O  0.66454352  0.76351042  0.45203314    -0.58800
H1578       H  0.69920939  0.79354453  0.46904545     0.15800
O1579       O  0.64704353  0.85536177  0.49617795    -0.60200
H1580       H  0.61274551  0.82534477  0.47952116     0.14300
H1581       H  0.60547718  0.76902151  0.37882596     0.46100
H1582       H  0.66253015  0.75071040  0.46523594     0.41500
H1583       H  0.64405104  0.86695303  0.48208890     0.45000
H1584       H  0.59791496  0.75735168  0.49201626     0.36400
C1585       C  0.50767998  0.59176319  0.46677774    -0.27800
C1586       C  0.48601119  0.59776361  0.45330299     0.01800
C1587       C  0.46781490  0.57880470  0.45011208     0.29900
C1588       C  0.47173145  0.55466337  0.45974624    -0.19600
C1589       C  0.49316469  0.54903759  0.47372339    -0.29000
C1590       C  0.51106364  0.56800730  0.47725130     0.43900
C1591       C  0.48337061  0.62329885  0.44171773     0.05100
O1592       O  0.44585162  0.58372457  0.43804214    -0.57500
H1593       H  0.45760180  0.54047815  0.45696022     0.18000
O1594       O  0.53195491  0.56359052  0.49124907    -0.64200
H1595       H  0.52226049  0.60554520  0.46916694     0.16500
C1596       C  0.48993578  0.64542882  0.45458203     0.28700
C1597       C  0.49016107  0.66867257  0.44219825    -0.25100
C1598       C  0.48332252  0.67071555  0.41696715    -0.24400
C1599       C  0.47531384  0.64871740  0.40462136     0.40200
C1600       C  0.47561923  0.62555482  0.41684278    -0.26900
O1601       O  0.49646657  0.64459814  0.47925938    -0.58800
H1602       H  0.49613535  0.68508869  0.45231627     0.15800
O1603       O  0.46777746  0.64931900  0.38021029    -0.60200
H1604       H  0.47069813  0.60907275  0.40628727     0.14300
H1605       H  0.52660535  0.56611454  0.50879176     0.46100
H1606       H  0.48043395  0.64486922  0.48856505     0.41500
H1607       H  0.48276819  0.64477574  0.37031812     0.45000
H1608       H  0.43471196  0.59097148  0.45094638     0.36400
C1609       C  0.62407545  0.71602286  0.32720359    -0.27800
C1610       C  0.63189944  0.73500638  0.31077565     0.01800
C1611       C  0.61466234  0.75411643  0.30496869     0.29900
C1612       C  0.59043250  0.75381923  0.31506501    -0.19600
C1613       C  0.58288270  0.73525577  0.33196804    -0.29000
C1614       C  0.60008593  0.71629438  0.33807469     0.43900
C1615       C  0.65771764  0.73477822  0.29950483     0.05100
O1616       O  0.62151384  0.77377932  0.29007193    -0.57500
H1617       H  0.57789696  0.76899314  0.31058773     0.18000
O1618       O  0.59351275  0.69765933  0.35435426    -0.64200
H1619       H  0.63658390  0.70084598  0.33168665     0.16500
C1620       C  0.67939903  0.73005186  0.31380999     0.28700
C1621       C  0.70327424  0.73098147  0.30264295    -0.25100
C1622       C  0.70617356  0.73749153  0.27738923    -0.24400
C1623       C  0.68458211  0.74209616  0.26319494     0.40200
C1624       C  0.66082017  0.74010811  0.27400268    -0.26900
O1625       O  0.67761684  0.72533846  0.33888281    -0.58800
H1626       H  0.71961855  0.72750086  0.31393993     0.15800
O1627       O  0.68651123  0.74926241  0.23871563    -0.60200
H1628       H  0.64467835  0.74324335  0.26233604     0.14300
H1629       H  0.60075319  0.70264816  0.37060458     0.46100
H1630       H  0.67798120  0.74196371  0.34695829     0.41500
H1631       H  0.68993675  0.76743358  0.23920114     0.45000
H1632       H  0.62963301  0.78589029  0.30142713     0.36400
C1633       C  0.59112325  0.97633059  0.51512539    -0.27800
C1634       C  0.59438371  0.95055016  0.51873914     0.01800
C1635       C  0.57267024  0.93554654  0.52088355     0.29900
C1636       C  0.54869957  0.94619914  0.51873349    -0.19600
C1637       C  0.54567718  0.97178070  0.51382416    -0.29000
C1638       C  0.56730177  0.98678220  0.51219454     0.43900
C1639       C  0.62034924  0.93956659  0.51908885     0.05100
O1640       O  0.57458801  0.91029196  0.52431603    -0.57500
H1641       H  0.53242560  0.93427625  0.52019559     0.18000
O1642       O  0.56541832  0.01176458  0.50707448    -0.64200
H1643       H  0.60720447  0.98853572  0.51412808     0.16500
C1644       C  0.63852353  0.94649973  0.50112411     0.28700
C1645       C  0.66219732  0.93513885  0.50084643    -0.25100
C1646       C  0.66850406  0.91647606  0.51808228    -0.24400
C1647       C  0.65071328  0.91005968  0.53654969     0.40200
C1648       C  0.62712495  0.92170181  0.53709983    -0.26900
O1649       O  0.63277663  0.96312163  0.48257250    -0.58800
H1650       H  0.67526245  0.94018513  0.48621368     0.15800
O1651       O  0.65624685  0.89257034  0.55435050    -0.60200
H1652       H  0.61399251  0.91651882  0.55161041     0.14300
H1653       H  0.56336398  0.01282947  0.48873590     0.46100
H1654       H  0.64272706  0.97829016  0.48624333     0.41500
H1655       H  0.64824848  0.87695113  0.54852948     0.45000
H1656       H  0.57403650  0.90303992  0.50733172     0.36400
C1657       C  0.37590112  0.07981025  0.47877294    -0.27800
C1658       C  0.37754416  0.05422404  0.48393914     0.01800
C1659       C  0.35507050  0.04116872  0.48910926     0.29900
C1660       C  0.33215512  0.05401864  0.49093855    -0.19600
C1661       C  0.33078502  0.07983073  0.48653438    -0.29000
C1662       C  0.35297974  0.09232278  0.47916418     0.43900
C1663       C  0.40286208  0.04209679  0.48554444     0.05100
O1664       O  0.35522786  0.01583472  0.49250032    -0.57500
H1665       H  0.31541995  0.04371408  0.49578264     0.18000
O1666       O  0.35284377  0.11711637  0.47295212    -0.64200
H1667       H  0.39261445  0.09054634  0.47495654     0.16500
C1668       C  0.42237378  0.04763003  0.46843117     0.28700
C1669       C  0.44660100  0.03818094  0.47215953    -0.25100
C1670       C  0.45179296  0.02238825  0.49235178    -0.24400
C1671       C  0.43224060  0.01607058  0.50884533     0.40200
C1672       C  0.40824735  0.02606705  0.50555970    -0.26900
O1673       O  0.41796070  0.06200906  0.44777759    -0.58800
H1674       H  0.46127628  0.04279318  0.45898044     0.15800
O1675       O  0.43629094  0.99924920  0.52770298    -0.60200
H1676       H  0.39393881  0.02157134  0.51915161     0.14300
H1677       H  0.35050881  0.11750003  0.45462697     0.46100
H1678       H  0.41253716  0.05011575  0.43471230     0.41500
H1679       H  0.43244108  0.00822132  0.54339810     0.45000
H1680       H  0.35319036  0.00869636  0.47556889     0.36400
C1681       C  0.52853691  0.99061574  0.59229770    -0.27800
C1682       C  0.54121399  0.01249010  0.59908525     0.01800
C1683       C  0.54424986  0.03150803  0.58107475     0.29900
C1684       C  0.53547179  0.02812385  0.55669603    -0.19600
C1685       C  0.52281902  0.00621836  0.54996887    -0.29000
C1686       C  0.51933415  0.98742846  0.56805769     0.43900
C1687       C  0.55362577  0.01401068  0.62390633     0.05100
O1688       O  0.55587479  0.05347419  0.58711496    -0.57500
H1689       H  0.53829698  0.04278215  0.54307945     0.18000
O1690       O  0.50620094  0.96620235  0.56234561    -0.64200
H1691       H  0.52629930  0.97560157  0.60562950     0.16500
C1692       C  0.54112858  0.00825157  0.64644119     0.28700
C1693       C  0.55443253  0.00739392  0.66906482    -0.25100
C1694       C  0.58025137  0.01219029  0.66964359    -0.24400
C1695       C  0.59242472  0.01866845  0.64703567     0.40200
C1696       C  0.57915413  0.01949318  0.62468151    -0.26900
O1697       O  0.51586700  0.00398901  0.64659053    -0.58800
H1698       H  0.54456595  0.00271120  0.68610711     0.15800
O1699       O  0.61751859  0.02384653  0.64634494    -0.60200
H1700       H  0.58923652  0.02357853  0.60760157     0.14300
H1701       H  0.51848131  0.95241176  0.56311799     0.46100
H1702       H  0.51389917  0.98585959  0.64967482     0.41500
H1703       H  0.62535169  0.00943252  0.63780397     0.45000
H1704       H  0.54219522  0.06500651  0.59184360     0.36400
C1705       C  0.51127206  0.85643887  0.45357127    -0.27800
C1706       C  0.51745990  0.87849385  0.44061861     0.01800
C1707       C  0.52418226  0.87652680  0.41522742     0.29900
C1708       C  0.52376959  0.85328734  0.40318080    -0.19600
C1709       C  0.51609010  0.83146421  0.41570312    -0.29000
C1710       C  0.51040283  0.83321209  0.44137142     0.43900
C1711       C  0.51527911  0.90347390  0.45317537     0.05100
O1712       O  0.53009043  0.89736898  0.40158892    -0.57500
H1713       H  0.52840631  0.85265035  0.38351735     0.18000
O1714       O  0.50335096  0.81250818  0.45466001    -0.64200
H1715       H  0.50659501  0.85726294  0.47321946     0.16500
C1716       C  0.49360087  0.90986673  0.46678873     0.28700
C1717       C  0.49130171  0.93348733  0.47771490    -0.25100
C1718       C  0.51011821  0.95158201  0.47519735    -0.24400
C1719       C  0.53173280  0.94550661  0.46137280     0.40200
C1720       C  0.53431635  0.92153672  0.45083178    -0.26900
O1721       O  0.47420804  0.89331099  0.46919632    -0.58800
H1722       H  0.47452217  0.93780251  0.48820318     0.15800
O1723       O  0.55054521  0.96267360  0.45846766    -0.60200
H1724       H  0.55128545  0.91710113  0.44074014     0.14300
H1725       H  0.51916628  0.80507117  0.46065387     0.46100
H1726       H  0.46366911  0.89604166  0.45429576     0.41500
H1727       H  0.55148337  0.96615625  0.44032586     0.45000
H1728       H  0.51403776  0.90321877  0.39456285     0.36400
C1729       C  0.43214720  0.88757262  0.29226477    -0.27800
C1730       C  0.45732162  0.88797953  0.28549421     0.01800
C1731       C  0.46727480  0.90869958  0.27294618     0.29900
C1732       C  0.45177497  0.92896721  0.26735548    -0.19600
C1733       C  0.42647620  0.92886624  0.27466494    -0.29000
C1734       C  0.41676665  0.90774565  0.28719767     0.43900
C1735       C  0.47292959  0.86794220  0.29536026     0.05100
O1736       O  0.49195421  0.90924228  0.26608965    -0.57500
H1737       H  0.45959072  0.94478658  0.25746481     0.18000
O1738       O  0.39211981  0.90621536  0.29410851    -0.64200
H1739       H  0.42452433  0.87170187  0.30227864     0.16500
C1740       C  0.48116889  0.87004257  0.32005716     0.28700
C1741       C  0.48743896  0.84869000  0.33329275    -0.25100
C1742       C  0.48580839  0.82511115  0.32211088    -0.24400
C1743       C  0.48008307  0.82318889  0.29663174     0.40200
C1744       C  0.47320527  0.84464733  0.28343020    -0.26900
O1745       O  0.48102545  0.89267277  0.33201370    -0.58800
H1746       H  0.49245237  0.85047692  0.35276574     0.15800
O1747       O  0.47872363  0.80035132  0.28524873    -0.60200
H1748       H  0.46633817  0.84288973  0.26453766     0.14300
H1749       H  0.39181880  0.90988942  0.31222779     0.46100
H1750       H  0.46466654  0.89353882  0.34071093     0.41500
H1751       H  0.49542975  0.79776515  0.27765143     0.45000
H1752       H  0.50064342  0.91769032  0.28001869     0.36400
C1753       C  0.46068985  0.09272530  0.20757964    -0.27800
C1754       C  0.45286123  0.11618753  0.21620885     0.01800
C1755       C  0.43367988  0.11785008  0.23400559     0.29900
C1756       C  0.42099547  0.09632002  0.24122200    -0.19600
C1757       C  0.42759191  0.07312976  0.23119393    -0.29000
C1758       C  0.44827846  0.07110667  0.21525046     0.43900
C1759       C  0.46006370  0.13842151  0.20204191     0.05100
O1760       O  0.42541955  0.14061403  0.24222849    -0.57500
H1761       H  0.40518277  0.09786784  0.25373348     0.18000
O1762       O  0.45499769  0.04854015  0.20533106    -0.64200
H1763       H  0.47525858  0.09140209  0.19356574     0.16500
C1764       C  0.47498776  0.15740539  0.21210470     0.28700
C1765       C  0.48119445  0.17813819  0.19740312    -0.25100
C1766       C  0.47221485  0.18023822  0.17284791    -0.24400
C1767       C  0.45635570  0.16139062  0.16339578     0.40200
C1768       C  0.45051280  0.14079697  0.17799120    -0.26900
O1769       O  0.48429799  0.15535038  0.23579818    -0.58800
H1770       H  0.49342303  0.19227125  0.20505896     0.15800
O1771       O  0.44646824  0.16270198  0.13986496    -0.60200
H1772       H  0.43843800  0.12644863  0.17042224     0.14300
H1773       H  0.46627999  0.04094684  0.21779927     0.46100
H1774       H  0.47388273  0.16662029  0.24614687     0.41500
H1775       H  0.45721751  0.15186797  0.12938065     0.45000
H1776       H  0.43294145  0.14273876  0.25896183     0.36400
C1777       C  0.31387466  0.05735667  0.35132805    -0.27800
C1778       C  0.30068007  0.03933117  0.36496561     0.01800
C1779       C  0.29783294  0.01520891  0.35514120     0.29900
C1780       C  0.30985011  0.00894737  0.33275714    -0.19600
C1781       C  0.32519092  0.02642238  0.32053471    -0.29000
C1782       C  0.32653514  0.05097525  0.32956018     0.43900
C1783       C  0.29196379  0.04599193  0.39016557     0.05100
O1784       O  0.28471409  0.99731819  0.36795925    -0.57500
H1785       H  0.30879578  0.98992035  0.32605778     0.18000
O1786       O  0.34158163  0.06835358  0.31820445    -0.64200
H1787       H  0.31553713  0.07623189  0.35834812     0.16500
C1788       C  0.30875795  0.05722178  0.40689363     0.28700
C1789       C  0.29969756  0.06925569  0.42799182    -0.25100
C1790       C  0.27413997  0.06944283  0.43325166    -0.24400
C1791       C  0.25762042  0.05569533  0.41820191     0.40200
C1792       C  0.26657347  0.04429267  0.39646613    -0.26900
O1793       O  0.33398366  0.05729363  0.40214719    -0.58800
H1794       H  0.31256370  0.07978238  0.43935127     0.15800
O1795       O  0.23244844  0.05574414  0.42295882    -0.60200
H1796       H  0.25349956  0.03563990  0.38375740     0.14300
H1797       H  0.33040577  0.08234081  0.31362976     0.46100
H1798       H  0.33843980  0.07489140  0.39853447     0.41500
H1799       H  0.22962668  0.04150003  0.43442384     0.45000
H1800       H  0.29699599  0.98955875  0.37935182     0.36400
C1801       C  0.45208415  0.99827763  0.13955645    -0.27800
C1802       C  0.44625419  0.01761545  0.12277445     0.01800
C1803       C  0.42921436  0.03609393  0.13069236     0.29900
C1804       C  0.41743493  0.03424774  0.15411817    -0.19600
C1805       C  0.42281384  0.01453865  0.17057461    -0.29000
C1806       C  0.44091428  0.99688105  0.16329468     0.43900
C1807       C  0.45724071  0.01761699  0.09689238     0.05100
O1808       O  0.42370642  0.05596742  0.11560595    -0.57500
H1809       H  0.40381867  0.04823146  0.15936380     0.18000
O1810       O  0.44657571  0.97712310  0.17847179    -0.64200
H1811       H  0.46475912  0.98359218  0.13395950     0.16500
C1812       C  0.48291864  0.01330895  0.09285020     0.28700
C1813       C  0.49241056  0.01105652  0.06849099    -0.25100
C1814       C  0.47687682  0.01319448  0.04751804    -0.24400
C1815       C  0.45151112  0.01913252  0.05142065     0.40200
C1816       C  0.44183164  0.02081651  0.07586442    -0.26900
O1817       O  0.49904261  0.01192417  0.11262362    -0.58800
H1818       H  0.51209816  0.00714173  0.06596250     0.15800
O1819       O  0.43591330  0.02274618  0.03154440    -0.60200
H1820       H  0.42204039  0.02412489  0.07832904     0.14300
H1821       H  0.46085442  0.98289233  0.18868193     0.46100
H1822       H  0.50468230  0.99432764  0.11319692     0.41500
H1823       H  0.43253814  0.04091261  0.03121093     0.45000
H1824       H  0.43724710  0.06824054  0.11856371     0.36400
C1825       C  0.42597607  0.96719654  0.37273730    -0.27800
C1826       C  0.44248987  0.98611041  0.38036870     0.01800
C1827       C  0.44800861  0.00553195  0.36333990     0.29900
C1828       C  0.43684684  0.00600398  0.33967499    -0.19600
C1829       C  0.41941678  0.98775405  0.33259767    -0.29000
C1830       C  0.41424451  0.96810440  0.34934943     0.43900
C1831       C  0.45343554  0.98574772  0.40612525     0.05100
O1832       O  0.46353969  0.02476453  0.36992947    -0.57500
H1833       H  0.44089667  0.02147961  0.32730546     0.18000
O1834       O  0.39794444  0.94947300  0.34292699    -0.64200
H1835       H  0.42188358  0.95172470  0.38508383     0.16500
C1836       C  0.43847131  0.98152456  0.42753137     0.28700
C1837       C  0.44910281  0.98192409  0.45148279    -0.25100
C1838       C  0.47444259  0.98780738  0.45481936    -0.24400
C1839       C  0.48933529  0.99205571  0.43346369     0.40200
C1840       C  0.47902187  0.99042629  0.40953012    -0.26900
O1841       O  0.41323402  0.97787874  0.42537170    -0.58800
H1842       H  0.43729519  0.97850948  0.46756275     0.15800
O1843       O  0.51399453  0.99848812  0.43577851    -0.60200
H1844       H  0.49107794  0.99336080  0.39353515     0.14300
H1845       H  0.38193758  0.95390218  0.35112877     0.46100
H1846       H  0.40581987  0.99478477  0.42636620     0.41500
H1847       H  0.51399450  0.01661605  0.43937446     0.45000
H1848       H  0.45283894  0.03661908  0.37927857     0.36400
C1849       C  0.64865770  0.28990560  0.51639232    -0.27800
C1850       C  0.63669049  0.29487329  0.53907054     0.01800
C1851       C  0.64744181  0.31145860  0.55618834     0.29900
C1852       C  0.66926825  0.32409636  0.54993610    -0.19600
C1853       C  0.68075854  0.32029492  0.52675199    -0.29000
C1854       C  0.67075117  0.30246108  0.51015168     0.43900
C1855       C  0.61225356  0.28404700  0.54483033     0.05100
O1856       O  0.63634214  0.31576930  0.57889150    -0.57500
H1857       H  0.67660267  0.33773524  0.56282672     0.18000
O1858       O  0.68107814  0.29878650  0.48700491    -0.64200
H1859       H  0.64036550  0.27707427  0.50319355     0.16500
C1860       C  0.59076298  0.29901638  0.54329805     0.28700
C1861       C  0.56901920  0.29179876  0.55583716    -0.25100
C1862       C  0.56867888  0.26969123  0.56961941    -0.24400
C1863       C  0.58936244  0.25357880  0.56906617     0.40200
C1864       C  0.61117312  0.26092400  0.55682101    -0.26900
O1865       O  0.59141446  0.32133444  0.53078456    -0.58800
H1866       H  0.55298055  0.30402774  0.55588805     0.15800
O1867       O  0.58919307  0.23175194  0.58239791    -0.60200
H1868       H  0.62775358  0.24946727  0.55823410     0.14300
H1869       H  0.69254925  0.28444647  0.48903196     0.46100
H1870       H  0.59333739  0.33426666  0.54384677     0.41500
H1871       H  0.58194903  0.21915838  0.57098617     0.45000
H1872       H  0.62725582  0.33174654  0.57697378     0.36400
C1873       C  0.55895852  0.15243055  0.68785873    -0.27800
C1874       C  0.54109262  0.13756609  0.69992650     0.01800
C1875       C  0.51672953  0.14684937  0.70328420     0.29900
C1876       C  0.51013151  0.16988084  0.69278506    -0.19600
C1877       C  0.52751272  0.18346404  0.67851108    -0.29000
C1878       C  0.55231448  0.17500633  0.67690837     0.43900
C1879       C  0.54833465  0.11204366  0.70747787     0.05100
O1880       O  0.49887903  0.13291841  0.71530096    -0.57500
H1881       H  0.49088966  0.17598728  0.69391259     0.18000
O1882       O  0.56967278  0.18763878  0.66287925    -0.64200
H1883       H  0.57798567  0.14588163  0.68577552     0.16500
C1884       C  0.56086899  0.09643807  0.69037329     0.28700
C1885       C  0.57303964  0.07513441  0.69880455    -0.25100
C1886       C  0.57202614  0.06842471  0.72401756    -0.24400
C1887       C  0.55699168  0.08227215  0.74056237     0.40200
C1888       C  0.54550546  0.10421588  0.73230190    -0.26900
O1889       O  0.56272175  0.10275471  0.66563625    -0.58800
H1890       H  0.58432798  0.06450871  0.68581885     0.15800
O1891       O  0.55569306  0.07610473  0.76534548    -0.60200
H1892       H  0.53582567  0.11591489  0.74564669     0.14300
H1893       H  0.58335568  0.19193246  0.67452831     0.46100
H1894       H  0.54704543  0.09665192  0.65797451     0.41500
H1895       H  0.54115666  0.06471120  0.76677633     0.45000
H1896       H  0.49231115  0.12134322  0.70248214     0.36400
C1897       C  0.39905263  0.18789882  0.56850692    -0.27800
C1898       C  0.39054006  0.20123662  0.54778214     0.01800
C1899       C  0.40316489  0.22292414  0.54015556     0.29900
C1900       C  0.42364101  0.23150055  0.55390028    -0.19600
C1901       C  0.43149676  0.21866677  0.57536835    -0.29000
C1902       C  0.41925486  0.19640362  0.58229875     0.43900
C1903       C  0.36825333  0.19187643  0.53484989     0.05100
O1904       O  0.39536283  0.23605661  0.51968492    -0.57500
H1905       H  0.43270770  0.24870607  0.54834766     0.18000
O1906       O  0.42681833  0.18279392  0.60258373    -0.64200
H1907       H  0.38953407  0.17104247  0.57443366     0.16500
C1908       C  0.36810759  0.16722069  0.52617871     0.28700
C1909       C  0.34568564  0.15603603  0.51984425    -0.25100
C1910       C  0.32317113  0.16932075  0.52086722    -0.24400
C1911       C  0.32335400  0.19455690  0.52784329     0.40200
C1912       C  0.34596512  0.20574807  0.53496136    -0.26900
O1913       O  0.38963297  0.15339272  0.52540297    -0.58800
H1914       H  0.34582405  0.13651142  0.51484102     0.15800
O1915       O  0.30154363  0.20782585  0.52932473    -0.60200
H1916       H  0.34588469  0.22470211  0.54192814     0.14300
H1917       H  0.41468005  0.18679412  0.61602550     0.46100
H1918       H  0.39715802  0.15697003  0.50885366     0.41500
H1919       H  0.29484234  0.20441432  0.54626256     0.45000
H1920       H  0.40234419  0.22699007  0.50513708     0.36400
C1921       C  0.46824044  0.34559891  0.70842776    -0.27800
C1922       C  0.46288247  0.36783019  0.69571863     0.01800
C1923       C  0.46520231  0.36883950  0.66966898     0.29900
C1924       C  0.47205728  0.34754923  0.65654262    -0.19600
C1925       C  0.47668595  0.32501412  0.66906219    -0.29000
C1926       C  0.47536219  0.32423673  0.69524039     0.43900
C1927       C  0.45067392  0.38847431  0.70888075     0.05100
O1928       O  0.45972828  0.39026218  0.65680507    -0.57500
H1929       H  0.47349927  0.34864061  0.63640159     0.18000
O1930       O  0.47941297  0.30241707  0.70790906    -0.64200
H1931       H  0.46601470  0.34462231  0.72849420     0.16500
C1932       C  0.42629383  0.38503177  0.71791064     0.28700
C1933       C  0.41266921  0.40543004  0.72614295    -0.25100
C1934       C  0.42316196  0.42937275  0.72593528    -0.24400
C1935       C  0.44804311  0.43277755  0.71829524     0.40200
C1936       C  0.46162579  0.41230102  0.70939184    -0.26900
O1937       O  0.41494595  0.36210549  0.71685196    -0.58800
H1938       H  0.39355660  0.40258352  0.73226804     0.15800
O1939       O  0.45851962  0.45611035  0.71777862    -0.60200
H1940       H  0.48033617  0.41507837  0.70215421     0.14300
H1941       H  0.49694778  0.30341878  0.71367525     0.46100
H1942       H  0.41676250  0.35497796  0.73380876     0.41500
H1943       H  0.46767657  0.45763285  0.73373444     0.45000
H1944       H  0.44167084  0.38909429  0.65294608     0.36400
C1945       C  0.51942853  0.42693891  0.56089219    -0.27800
C1946       C  0.51366307  0.40615397  0.54582306     0.01800
C1947       C  0.50760443  0.41043573  0.52061652     0.29900
C1948       C  0.50619249  0.43480518  0.51126700    -0.19600
C1949       C  0.51100109  0.45557428  0.52647358    -0.29000
C1950       C  0.51823741  0.45147445  0.55137986     0.43900
C1951       C  0.51320546  0.38021409  0.55648582     0.05100
O1952       O  0.50295011  0.39085832  0.50486785    -0.57500
H1953       H  0.50095714  0.43755908  0.49196731     0.18000
O1954       O  0.52459543  0.47124037  0.56631403    -0.64200
H1955       H  0.52434196  0.42422162  0.58026898     0.16500
C1956       C  0.53320207  0.37075705  0.57068088     0.28700
C1957       C  0.53174154  0.34678571  0.58125518    -0.25100
C1958       C  0.51074947  0.33137686  0.57758325    -0.24400
C1959       C  0.49096273  0.34061519  0.56302921     0.40200
C1960       C  0.49228798  0.36471215  0.55267865    -0.26900
O1961       O  0.55425085  0.38480973  0.57450424    -0.58800
H1962       H  0.54707100  0.34025296  0.59263390     0.15800
O1963       O  0.46963512  0.32682088  0.55988566    -0.60200
H1964       H  0.47647904  0.37160989  0.54222241     0.14300
H1965       H  0.51178872  0.47169751  0.57971180     0.46100
H1966       H  0.56464325  0.38231826  0.55936601     0.41500
H1967       H  0.45886672  0.33104568  0.57437200     0.45000
H1968       H  0.51929561  0.38693875  0.49706325     0.36400
C1969       C  0.47688533  0.07090768  0.56361543    -0.27800
C1970       C  0.48532167  0.09214123  0.55043861     0.01800
C1971       C  0.49459342  0.08854551  0.52595708     0.29900
C1972       C  0.49520694  0.06453059  0.51534629    -0.19600
C1973       C  0.48732549  0.04339684  0.52871268    -0.29000
C1974       C  0.47811855  0.04677458  0.55314099     0.43900
C1975       C  0.48586309  0.11738283  0.56306902     0.05100
O1976       O  0.50509717  0.10799470  0.51298994    -0.57500
H1977       H  0.50299466  0.06223999  0.49680646     0.18000
O1978       O  0.47045442  0.02661027  0.56694958    -0.64200
H1979       H  0.46962447  0.07293746  0.58237934     0.16500
C1980       C  0.47802834  0.13956765  0.55103068     0.28700
C1981       C  0.48004149  0.16287106  0.56318388    -0.25100
C1982       C  0.48884720  0.16462872  0.58773694    -0.24400
C1983       C  0.49560589  0.14243846  0.60015868     0.40200
C1984       C  0.49438348  0.11931948  0.58782432    -0.26900
O1985       O  0.46684092  0.13848448  0.52807362    -0.58800
H1986       H  0.47403199  0.17958240  0.55358195     0.15800
O1987       O  0.50383388  0.14312840  0.62434982    -0.60200
H1988       H  0.50047310  0.10279259  0.59768044     0.14300
H1989       H  0.48194019  0.02578496  0.58139019     0.46100
H1990       H  0.47693205  0.14937288  0.51696652     0.41500
H1991       H  0.52222116  0.14494483  0.62315849     0.45000
H1992       H  0.49504006  0.10974676  0.49758584     0.36400
C1993       C  0.26488475  0.18461673  0.67692451    -0.27800
C1994       C  0.26383229  0.19985038  0.65547309     0.01800
C1995       C  0.26165985  0.22587124  0.65917135     0.29900
C1996       C  0.25867362  0.23574230  0.68326471    -0.19600
C1997       C  0.25927579  0.22051794  0.70463650    -0.29000
C1998       C  0.26348212  0.19474306  0.70122044     0.43900
C1999       C  0.26436723  0.18854520  0.62957650     0.05100
O2000       O  0.26278557  0.24205398  0.63940106    -0.57500
H2001       H  0.25611366  0.25567423  0.68529175     0.18000
O2002       O  0.26740259  0.17954708  0.72144144    -0.64200
H2003       H  0.26659694  0.16461411  0.67503296     0.16500
C2004       C  0.27966373  0.16788131  0.62352419     0.28700
C2005       C  0.27797179  0.15636691  0.60000415    -0.25100
C2006       C  0.26192711  0.16550527  0.58140889    -0.24400
C2007       C  0.24799098  0.18718700  0.58673924     0.40200
C2008       C  0.24876544  0.19799093  0.61064808    -0.26900
O2009       O  0.29641770  0.15862585  0.64040582    -0.58800
H2010       H  0.28929645  0.14004366  0.59635351     0.15800
O2011       O  0.23240511  0.19726885  0.56922019    -0.60200
H2012       H  0.23640233  0.21346357  0.61449442     0.14300
H2013       H  0.25580544  0.16522838  0.71958212     0.46100
H2014       H  0.31178611  0.16864989  0.63794557     0.41500
H2015       H  0.24270752  0.20983187  0.56027924     0.45000
H2016       H  0.28084147  0.24520251  0.63665956     0.36400
C2017       C  0.21616056  0.15972511  0.76041802    -0.27800
C2018       C  0.20121006  0.15327499  0.73996914     0.01800
C2019       C  0.19727464  0.17129203  0.72109080     0.29900
C2020       C  0.20769652  0.19523983  0.72317485    -0.19600
C2021       C  0.22280434  0.20141179  0.74354304    -0.29000
C2022       C  0.22709339  0.18340474  0.76216717     0.43900
C2023       C  0.18881269  0.12828676  0.73923044     0.05100
O2024       O  0.18353912  0.16558340  0.70034035    -0.57500
H2025       H  0.20441458  0.20885855  0.70863744     0.18000
O2026       O  0.24312014  0.18848867  0.78143756    -0.64200
H2027       H  0.21923373  0.14647834  0.77531960     0.16500
C2028       C  0.20175240  0.10598126  0.74466927     0.28700
C2029       C  0.18902978  0.08298121  0.74485243    -0.25100
C2030       C  0.16335537  0.08167471  0.73969270    -0.24400
C2031       C  0.15058052  0.10408827  0.73408881     0.40200
C2032       C  0.16323597  0.12689414  0.73403237    -0.26900
O2033       O  0.22698257  0.10636245  0.74899311    -0.58800
H2034       H  0.19932790  0.06614439  0.74906447     0.15800
O2035       O  0.12558903  0.10410318  0.72860059    -0.60200
H2036       H  0.15272358  0.14373568  0.73039829     0.14300
H2037       H  0.23317379  0.18642913  0.79689799     0.46100
H2038       H  0.22892463  0.10219950  0.76691473     0.41500
H2039       H  0.11701783  0.10788926  0.74455371     0.45000
H2040       H  0.19593615  0.16019216  0.68767094     0.36400
C2041       C  0.31216638  0.32136580  0.76732928    -0.27800
C2042       C  0.29761827  0.34274553  0.76260496     0.01800
C2043       C  0.27200406  0.33941544  0.75750717     0.29900
C2044       C  0.26177964  0.31538546  0.75588868    -0.19600
C2045       C  0.27634676  0.29405360  0.76012116    -0.29000
C2046       C  0.30161983  0.29728385  0.76666435     0.43900
C2047       C  0.30923460  0.36829236  0.76222662     0.05100
O2048       O  0.25670794  0.35958165  0.75401578    -0.57500
H2049       H  0.24227544  0.31336322  0.75104475     0.18000
O2050       O  0.31633084  0.27703720  0.77174968    -0.64200
H2051       H  0.33190644  0.32324232  0.77113768     0.16500
C2052       C  0.32512707  0.37660758  0.78144964     0.28700
C2053       C  0.33619874  0.40040426  0.78018244    -0.25100
C2054       C  0.33141250  0.41668924  0.76019454    -0.24400
C2055       C  0.31535992  0.40849471  0.74109272     0.40200
C2056       C  0.30466248  0.38453935  0.74210515    -0.26900
O2057       O  0.32934193  0.36193333  0.80196169    -0.58800
H2058       H  0.34876115  0.40606068  0.79489158     0.15800
O2059       O  0.31136702  0.42303161  0.72045394    -0.60200
H2060       H  0.29310351  0.37844126  0.72673914     0.14300
H2061       H  0.31611099  0.27543580  0.79015766     0.46100
H2062       H  0.34687648  0.35622221  0.80034258     0.41500
H2063       H  0.29534570  0.43166562  0.72371523     0.45000
H2064       H  0.24962578  0.36325844  0.77072929     0.36400
C2065       C  0.33786249  0.23898909  0.71574360    -0.27800
C2066       C  0.34491855  0.26086091  0.70307606     0.01800
C2067       C  0.32716564  0.28028192  0.70105756     0.29900
C2068       C  0.30300551  0.27741069  0.71106753    -0.19600
C2069       C  0.29631816  0.25576816  0.72427722    -0.29000
C2070       C  0.31413978  0.23656633  0.72662129     0.43900
C2071       C  0.37026243  0.26260844  0.69105641     0.05100
O2072       O  0.33333490  0.30234973  0.68967120    -0.57500
H2073       H  0.28963429  0.29238612  0.70900185     0.18000
O2074       O  0.30857430  0.21527252  0.73969325    -0.64200
H2075       H  0.35073804  0.22352259  0.71711984     0.16500
C2076       C  0.39227911  0.25530362  0.70356488     0.28700
C2077       C  0.41550341  0.25555574  0.69106939    -0.25100
C2078       C  0.41743253  0.26287355  0.66593656    -0.24400
C2079       C  0.39540335  0.27080293  0.65371893     0.40200
C2080       C  0.37233808  0.27055263  0.66619578    -0.26900
O2081       O  0.39139510  0.24846453  0.72821180    -0.58800
H2082       H  0.43198369  0.24954782  0.70103049     0.15800
O2083       O  0.39595479  0.27852941  0.62933553    -0.60200
H2084       H  0.35578620  0.27587283  0.65596649     0.14300
H2085       H  0.31161349  0.21951809  0.75742171     0.46100
H2086       H  0.39492484  0.23030659  0.72843747     0.41500
H2087       H  0.39137275  0.26361505  0.61942119     0.45000
H2088       H  0.33904550  0.31340224  0.70333527     0.36400
C2089       C  0.28749219  0.47686242  0.84807383    -0.27800
C2090       C  0.29630925  0.45664454  0.86202385     0.01800
C2091       C  0.31595875  0.44201737  0.85273799     0.29900
C2092       C  0.32816439  0.44913192  0.83095024    -0.19600
C2093       C  0.32109713  0.47081220  0.81811243    -0.29000
C2094       C  0.29970226  0.48396370  0.82604145     0.43900
C2095       C  0.28582371  0.45107953  0.88672373     0.05100
O2096       O  0.32353135  0.42093326  0.86512118    -0.57500
H2097       H  0.34417787  0.43838198  0.82494235     0.18000
O2098       O  0.29179190  0.50485281  0.81366890    -0.64200
H2099       H  0.27193882  0.48783016  0.85490584     0.16500
C2100       C  0.30140661  0.45114653  0.90783069     0.28700
C2101       C  0.29327486  0.43991602  0.92982679    -0.25100
C2102       C  0.26948445  0.42933609  0.93112149    -0.24400
C2103       C  0.25291647  0.43173963  0.91098921     0.40200
C2104       C  0.26121285  0.44251881  0.88876122    -0.26900
O2105       O  0.32525707  0.46040830  0.90649581    -0.58800
H2106       H  0.30599980  0.43824392  0.94532851     0.15800
O2107       O  0.22956756  0.42124325  0.91199202    -0.60200
H2108       H  0.24909070  0.44254772  0.87263570     0.14300
H2109       H  0.28003021  0.49863365  0.80084941     0.46100
H2110       H  0.32354824  0.47857342  0.90941254     0.41500
H2111       H  0.21882801  0.43403393  0.91995113     0.45000
H2112       H  0.33986470  0.42522191  0.87265763     0.36400
C2113       C  0.20867078  0.42558267  0.11509286    -0.27800
C2114       C  0.21286586  0.45125527  0.11452068     0.01800
C2115       C  0.22356539  0.46236290  0.09330951     0.29900
C2116       C  0.23005773  0.44753271  0.07279653    -0.19600
C2117       C  0.22530281  0.42174721  0.07305301    -0.29000
C2118       C  0.21449665  0.41083643  0.09459857     0.43900
C2119       C  0.20255823  0.46605598  0.13504161     0.05100
O2120       O  0.22791849  0.48755785  0.09264806    -0.57500
H2121       H  0.23852809  0.45625771  0.05661994     0.18000
O2122       O  0.20995861  0.38569376  0.09618745    -0.64200
H2123       H  0.20003940  0.41702224  0.13130363     0.16500
C2124       C  0.17917187  0.47732634  0.13191746     0.28700
C2125       C  0.16577239  0.48515082  0.15274318    -0.25100
C2126       C  0.17562009  0.48224947  0.17674902    -0.24400
C2127       C  0.19981850  0.47272111  0.17982235     0.40200
C2128       C  0.21306523  0.46427266  0.15892622    -0.26900
O2129       O  0.16820644  0.47834608  0.10886180    -0.58800
H2130       H  0.14717537  0.49264421  0.15020311     0.15800
O2131       O  0.20960797  0.46941315  0.20317128    -0.60200
H2132       H  0.23087149  0.45507404  0.16144288     0.14300
H2133       H  0.19226396  0.38359213  0.09124345     0.46100
H2134       H  0.17094805  0.49565617  0.10295685     0.41500
H2135       H  0.21821181  0.48531558  0.20706577     0.45000
H2136       H  0.21466296  0.49451735  0.08184972     0.36400
C2137       C  0.35808490  0.30184988  0.01508053    -0.27800
C2138       C  0.36468103  0.30351564  0.04030178     0.01800
C2139       C  0.34818467  0.31486799  0.05737744     0.29900
C2140       C  0.32659109  0.32629196  0.04882013    -0.19600
C2141       C  0.32069423  0.32593517  0.02344108    -0.29000
C2142       C  0.33603292  0.31284870  0.00659044     0.43900
C2143       C  0.38962985  0.29566350  0.04859780     0.05100
O2144       O  0.35373483  0.31611068  0.08230287    -0.57500
H2145       H  0.31500031  0.33643945  0.06191702     0.18000
O2146       O  0.33106866  0.31303609  0.98152707    -0.64200
H2147       H  0.37070445  0.29334000  0.00175637     0.16500
C2148       C  0.39827110  0.27115025  0.04517579     0.28700
C2149       C  0.42037218  0.26356436  0.05676212    -0.25100
C2150       C  0.43354406  0.28013604  0.07213082    -0.24400
C2151       C  0.42562378  0.30503916  0.07416883     0.40200
C2152       C  0.40421855  0.31278245  0.06185506    -0.26900
O2153       O  0.38411421  0.25397019  0.03261429    -0.58800
H2154       H  0.42601391  0.24421423  0.05545080     0.15800
O2155       O  0.43805528  0.32169279  0.08903359    -0.60200
H2156       H  0.39810627  0.33192217  0.06399358     0.14300
H2157       H  0.32235390  0.29706156  0.97825221     0.46100
H2158       H  0.39210777  0.25238695  0.01599072     0.41500
H2159       H  0.42815632  0.32266104  0.10467288     0.45000
H2160       H  0.34680187  0.30058336  0.08959876     0.36400
C2161       C  0.12435415  0.41967154  0.03235778    -0.27800
C2162       C  0.11721784  0.43661988  0.01361679     0.01800
C2163       C  0.13466171  0.44188475  0.99441707     0.29900
C2164       C  0.15850431  0.43091398  0.99451045    -0.19600
C2165       C  0.16546548  0.41372709  0.01301806    -0.29000
C2166       C  0.14793751  0.40800094  0.03192423     0.43900
C2167       C  0.09186053  0.44887837  0.01420277     0.05100
O2168       O  0.12841892  0.45724734  0.97497280    -0.57500
H2169       H  0.17129300  0.43517329  0.97938964     0.18000
O2170       O  0.15389576  0.39150529  0.05050285    -0.64200
H2171       H  0.11163839  0.41548234  0.04754160     0.16500
C2172       C  0.06962231  0.43519321  0.01855784     0.28700
C2173       C  0.04618698  0.44715101  0.01813094    -0.25100
C2174       C  0.04417379  0.47268710  0.01248409    -0.24400
C2175       C  0.06635470  0.48637623  0.00849735     0.40200
C2176       C  0.08974131  0.47465856  0.00978848    -0.26900
O2177       O  0.07042078  0.40992578  0.02231905    -0.58800
H2178       H  0.02944016  0.43622421  0.02123497     0.15800
O2179       O  0.06536480  0.51120587  0.00247824    -0.60200
H2180       H  0.10635632  0.48582705  0.00687529     0.14300
H2181       H  0.14632200  0.37543069  0.04537069     0.46100
H2182       H  0.06996374  0.40250883  0.00539004     0.41500
H2183       H  0.06291189  0.51167453  0.98416173     0.45000
H2184       H  0.11963491  0.44638400  0.96288238     0.36400
C2185       C  0.36292563  0.44896575  0.00444167    -0.27800
C2186       C  0.38044926  0.44234764  0.98587540     0.01800
C2187       C  0.37287575  0.42491115  0.96763730     0.29900
C2188       C  0.34901823  0.41385877  0.96880514    -0.19600
C2189       C  0.33166279  0.42024920  0.98756266    -0.29000
C2190       C  0.33876872  0.43848165  0.00513677     0.43900
C2191       C  0.40648340  0.45335846  0.98602872     0.05100
O2192       O  0.38865046  0.41840742  0.94852906    -0.57500
H2193       H  0.34409759  0.40005286  0.95491861     0.18000
O2194       O  0.32287518  0.44509808  0.02409626    -0.64200
H2195       H  0.36815708  0.46187600  0.01902341     0.16500
C2196       C  0.41047562  0.47909726  0.98994422     0.28700
C2197       C  0.43485067  0.48882142  0.99128064    -0.25100
C2198       C  0.45601578  0.47357643  0.98842761    -0.24400
C2199       C  0.45215753  0.44801519  0.98339445     0.40200
C2200       C  0.42769982  0.43808908  0.98273488    -0.26900
O2201       O  0.39061685  0.49514427  0.99160809    -0.58800
H2202       H  0.43723411  0.50856483  0.99482934     0.15800
O2203       O  0.47211444  0.43249080  0.97950734    -0.60200
H2204       H  0.42539950  0.41823460  0.97989883     0.14300
H2205       H  0.31336057  0.45952304  0.01757603     0.46100
H2206       H  0.39040890  0.50104218  0.00912747     0.41500
H2207       H  0.47112314  0.42738274  0.96178023     0.45000
H2208       H  0.38524553  0.43059204  0.93505769     0.36400
C2209       C  0.24094073  0.29660553  0.89198007    -0.27800
C2210       C  0.23743852  0.31026118  0.86983269     0.01800
C2211       C  0.23380089  0.33622506  0.87157854     0.29900
C2212       C  0.23380158  0.34804172  0.89488551    -0.19600
C2213       C  0.23798034  0.33458086  0.91700556    -0.29000
C2214       C  0.24130295  0.30851315  0.91535156     0.43900
C2215       C  0.23850379  0.29762136  0.84496197     0.05100
O2216       O  0.23108167  0.35045958  0.85051324    -0.57500
H2217       H  0.23144765  0.36808794  0.89548717     0.18000
O2218       O  0.24521373  0.29447497  0.93635089    -0.64200
H2219       H  0.24353286  0.27659676  0.89114880     0.16500
C2220       C  0.25887546  0.28232660  0.83837352     0.28700
C2221       C  0.25996663  0.27123496  0.81475505    -0.25100
C2222       C  0.24110762  0.27517740  0.79705006    -0.24400
C2223       C  0.22090347  0.29072677  0.80335160     0.40200
C2224       C  0.21957191  0.30156890  0.82721548    -0.26900
O2225       O  0.27807284  0.27836902  0.85474012    -0.58800
H2226       H  0.27566901  0.25934932  0.81019512     0.15800
O2227       O  0.20230884  0.29521200  0.78645095    -0.60200
H2228       H  0.20368951  0.31316785  0.83185397     0.14300
H2229       H  0.22832739  0.29112076  0.94322826     0.46100
H2230       H  0.29001253  0.29218470  0.85165363     0.41500
H2231       H  0.20567478  0.31219105  0.77991519     0.45000
H2232       H  0.24831371  0.35362322  0.84443779     0.36400
C2233       C  0.19920012  0.38978827  0.25109881    -0.27800
C2234       C  0.19112866  0.37161138  0.23396772     0.01800
C2235       C  0.17237358  0.37832708  0.21678896     0.29900
C2236       C  0.16158967  0.40222456  0.21754257    -0.19600
C2237       C  0.16942441  0.42024105  0.23494401    -0.29000
C2238       C  0.18887203  0.41386874  0.25145579     0.43900
C2239       C  0.20208657  0.34577587  0.23463384     0.05100
O2240       O  0.16424112  0.36163949  0.19923650    -0.57500
H2241       H  0.14674219  0.40656186  0.20459539     0.18000
O2242       O  0.19690193  0.43044453  0.26916551    -0.64200
H2243       H  0.21316641  0.38513142  0.26486181     0.16500
C2244       C  0.22809332  0.34210208  0.23629757     0.28700
C2245       C  0.23792962  0.31796310  0.23877506    -0.25100
C2246       C  0.22247975  0.29670852  0.23902781    -0.24400
C2247       C  0.19653316  0.30021654  0.23584651     0.40200
C2248       C  0.18655674  0.32452841  0.23434052    -0.26900
O2249       O  0.24417019  0.36199239  0.23466881    -0.58800
H2250       H  0.25793253  0.31585951  0.24076344     0.15800
O2251       O  0.18071607  0.28010429  0.23478011    -0.60200
H2252       H  0.16650280  0.32671733  0.23319693     0.14300
H2253       H  0.21148613  0.43897375  0.26152816     0.46100
H2254       H  0.25170804  0.36364154  0.25144866     0.41500
H2255       H  0.17288426  0.28074601  0.21808727     0.45000
H2256       H  0.17627961  0.36311766  0.18521985     0.36400
C2257       C  0.24692559  0.22353813  0.34094705    -0.27800
C2258       C  0.23733258  0.19916502  0.34298072     0.01800
C2259       C  0.22821275  0.18758674  0.32104777     0.29900
C2260       C  0.23030702  0.19969450  0.29777159    -0.19600
C2261       C  0.24066279  0.22365951  0.29589810    -0.29000
C2262       C  0.24820318  0.23585561  0.31785921     0.43900
C2263       C  0.23740411  0.18628655  0.36799918     0.05100
O2264       O  0.21603392  0.16507959  0.32237088    -0.57500
H2265       H  0.22372212  0.19038104  0.28112368     0.18000
O2266       O  0.25848384  0.25926654  0.31664039    -0.64200
H2267       H  0.25409655  0.23297180  0.35727293     0.16500
C2268       C  0.24556077  0.16137637  0.37070182     0.28700
C2269       C  0.24594918  0.15008246  0.39436713    -0.25100
C2270       C  0.23939254  0.16333225  0.41601235    -0.24400
C2271       C  0.23223464  0.18844630  0.41361339     0.40200
C2272       C  0.23079334  0.19953363  0.38982271    -0.26900
O2273       O  0.25507901  0.14853799  0.35067194    -0.58800
H2274       H  0.25230284  0.13096382  0.39588674     0.15800
O2275       O  0.22582747  0.20210127  0.43426204    -0.60200
H2276       H  0.22457698  0.21868841  0.38847559     0.14300
H2277       H  0.24582294  0.27050452  0.32411017     0.46100
H2278       H  0.24460584  0.13336076  0.34900281     0.41500
H2279       H  0.24153952  0.21021478  0.43969117     0.45000
H2280       H  0.22520941  0.15369183  0.31100014     0.36400
C2281       C  0.34091737  0.24041357  0.22500293    -0.27800
C2282       C  0.34354734  0.23638268  0.19922826     0.01800
C2283       C  0.32153808  0.23308511  0.18499653     0.29900
C2284       C  0.29785109  0.23443224  0.19648049    -0.19600
C2285       C  0.29547194  0.24028550  0.22193713    -0.29000
C2286       C  0.31740551  0.24318810  0.23609495     0.43900
C2287       C  0.36920106  0.23678417  0.18760492     0.05100
O2288       O  0.32283608  0.22926372  0.15974882    -0.57500
H2289       H  0.28128702  0.23174532  0.18528229     0.18000
O2290       O  0.31610314  0.24925633  0.26089978    -0.64200
H2291       H  0.35724861  0.24201157  0.23670506     0.16500
C2292       C  0.38706777  0.25498370  0.19453066     0.28700
C2293       C  0.41077904  0.25546391  0.18327645    -0.25100
C2294       C  0.41726600  0.23845633  0.16451306    -0.24400
C2295       C  0.39962283  0.22010704  0.15764994     0.40200
C2296       C  0.37611049  0.21910939  0.16943993    -0.26900
O2297       O  0.38097904  0.27355322  0.21105219    -0.58800
H2298       H  0.42372946  0.27008712  0.18846844     0.15800
O2299       O  0.40525526  0.20282304  0.13964956    -0.60200
H2300       H  0.36321575  0.20447468  0.16420202     0.14300
H2301       H  0.31439109  0.26765382  0.26130802     0.46100
H2302       H  0.39137520  0.27047495  0.22601309     0.41500
H2303       H  0.39733930  0.20913003  0.12420103     0.45000
H2304       H  0.32102072  0.24603964  0.15220242     0.36400
C2305       C  0.30112212  0.17276055  0.27950068    -0.27800
C2306       C  0.29840587  0.15570427  0.25972913     0.01800
C2307       C  0.28462162  0.16318543  0.23866468     0.29900
C2308       C  0.27333202  0.18672817  0.23798579    -0.19600
C2309       C  0.27613309  0.20381189  0.25764872    -0.29000
C2310       C  0.29054890  0.19675877  0.27842610     0.43900
C2311       C  0.31071490  0.13062877  0.26081307     0.05100
O2312       O  0.28257124  0.14788805  0.21829065    -0.57500
H2313       H  0.26262613  0.19190637  0.22168580     0.18000
O2314       O  0.29559630  0.21363621  0.29697676    -0.64200
H2315       H  0.31170268  0.16757994  0.29585947     0.16500
C2316       C  0.33585090  0.12819115  0.26811148     0.28700
C2317       C  0.34722437  0.10470928  0.26859225    -0.25100
C2318       C  0.33439880  0.08304351  0.26110660    -0.24400
C2319       C  0.30923079  0.08541274  0.25375565     0.40200
C2320       C  0.29754678  0.10891075  0.25404015    -0.26900
O2321       O  0.34983983  0.14874980  0.27413326    -0.58800
H2322       H  0.36651151  0.10365231  0.27438085     0.15800
O2323       O  0.29576680  0.06495330  0.24640682    -0.60200
H2324       H  0.27809828  0.11014913  0.24875028     0.14300
H2325       H  0.29097934  0.20533493  0.31287744     0.46100
H2326       H  0.35716453  0.15455787  0.25813728     0.41500
H2327       H  0.29676417  0.06493853  0.22792869     0.45000
H2328       H  0.29628624  0.15306092  0.20691759     0.36400
C2329       C  0.27014057  0.33234047  0.12593667    -0.27800
C2330       C  0.26463827  0.30685940  0.12766085     0.01800
C2331       C  0.25958002  0.29360015  0.10545105     0.29900
C2332       C  0.25901778  0.30611058  0.08233846    -0.19600
C2333       C  0.26391758  0.33184983  0.08077474    -0.29000
C2334       C  0.27004921  0.34474156  0.10300020     0.43900
C2335       C  0.26299335  0.29501562  0.15290297     0.05100
O2336       O  0.25499846  0.26844970  0.10610933    -0.57500
H2337       H  0.25449483  0.29568083  0.06566223     0.18000
O2338       O  0.27557265  0.36972787  0.10277605    -0.64200
H2339       H  0.27383076  0.34303443  0.14265633     0.16500
C2340       C  0.28164418  0.29891623  0.17109081     0.28700
C2341       C  0.27851450  0.28970848  0.19543131    -0.25100
C2342       C  0.25727634  0.27575155  0.20197678    -0.24400
C2343       C  0.23884711  0.27150678  0.18376710     0.40200
C2344       C  0.24172532  0.28115917  0.15957605    -0.26900
O2345       O  0.30318607  0.31148139  0.16519867    -0.58800
H2346       H  0.29297368  0.29297759  0.20911274     0.15800
O2347       O  0.21834372  0.25713179  0.18929283    -0.60200
H2348       H  0.22702752  0.27810022  0.14610315     0.14300
H2349       H  0.25983472  0.37822208  0.10750664     0.46100
H2350       H  0.31423529  0.29883086  0.15741738     0.41500
H2351       H  0.20383155  0.26847836  0.18797771     0.45000
H2352       H  0.27171242  0.26052009  0.10577455     0.36400
C2353       C  0.85337766  0.29255767  0.48302518    -0.27800
C2354       C  0.85881557  0.29229130  0.45747823     0.01800
C2355       C  0.84186841  0.30271089  0.44045752     0.29900
C2356       C  0.82103567  0.31556511  0.44926842    -0.19600
C2357       C  0.81648315  0.31746106  0.47490810    -0.29000
C2358       C  0.83214661  0.30495367  0.49183248     0.43900
C2359       C  0.88383123  0.28510697  0.44886312     0.05100
O2360       O  0.84623276  0.30131501  0.41524832    -0.57500
H2361       H  0.80921041  0.32519192  0.43610772     0.18000
O2362       O  0.82850789  0.30720380  0.51705597    -0.64200
H2363       H  0.86647114  0.28470102  0.49620861     0.16500
C2364       C  0.89976382  0.30347662  0.43892230     0.28700
C2365       C  0.92172149  0.29649115  0.42696117    -0.25100
C2366       C  0.92862509  0.27142096  0.42568344    -0.24400
C2367       C  0.91383502  0.25317194  0.43757916     0.40200
C2368       C  0.89132717  0.26009479  0.44898403    -0.26900
O2369       O  0.89329489  0.32820633  0.43965046    -0.58800
H2370       H  0.93285763  0.31056530  0.41776256     0.15800
O2371       O  0.91991671  0.22839368  0.43597278    -0.60200
H2372       H  0.87920279  0.24589604  0.45680598     0.14300
H2373       H  0.81833347  0.29249762  0.52183904     0.46100
H2374       H  0.90052137  0.33463880  0.45538378     0.41500
H2375       H  0.93121521  0.22528432  0.45023242     0.45000
H2376       H  0.85202271  0.31815488  0.41022630     0.36400
C2377       C  0.09742865  0.21855934  0.45867923    -0.27800
C2378       C  0.11982985  0.21920525  0.44485688     0.01800
C2379       C  0.11964210  0.22848199  0.42037119     0.29900
C2380       C  0.09709984  0.23413487  0.40909401    -0.19600
C2381       C  0.07444825  0.23172763  0.42209862    -0.29000
C2382       C  0.07471853  0.22522170  0.44747224     0.43900
C2383       C  0.14214864  0.20591862  0.45385477     0.05100
O2384       O  0.14125491  0.23018909  0.40664031    -0.57500
H2385       H  0.09728175  0.23954019  0.38967057     0.18000
O2386       O  0.05287087  0.22312252  0.46069574    -0.64200
H2387       H  0.09731292  0.21136086  0.47755308     0.16500
C2388       C  0.15333695  0.21121977  0.47692994     0.28700
C2389       C  0.17337644  0.19665513  0.48523230    -0.25100
C2390       C  0.18218033  0.17663295  0.47076813    -0.24400
C2391       C  0.17145172  0.17205703  0.44724576     0.40200
C2392       C  0.15170819  0.18663315  0.43903219    -0.26900
O2393       O  0.14446394  0.23011582  0.49169092    -0.58800
H2394       H  0.18124064  0.20029055  0.50345109     0.15800
O2395       O  0.18000167  0.15322634  0.43214567    -0.60200
H2396       H  0.14323391  0.18224431  0.42124221     0.14300
H2397       H  0.05108114  0.23921576  0.46961856     0.46100
H2398       H  0.15332384  0.24529459  0.48587021     0.41500
H2399       H  0.16761787  0.13957219  0.43388075     0.45000
H2400       H  0.14871149  0.24645138  0.41130743     0.36400
C2401       C  0.06355916  0.38576636  0.26353403    -0.27800
C2402       C  0.05242335  0.38529488  0.28720027     0.01800
C2403       C  0.05203061  0.40713993  0.30180783     0.29900
C2404       C  0.06402672  0.42866641  0.29331968    -0.19600
C2405       C  0.07630636  0.42871479  0.27028580    -0.29000
C2406       C  0.07553771  0.40737624  0.25504318     0.43900
C2407       C  0.04473138  0.36134988  0.29830582     0.05100
O2408       O  0.04135104  0.40709232  0.32509932    -0.57500
H2409       H  0.06471472  0.44490526  0.30522379     0.18000
O2410       O  0.08815967  0.40686896  0.23274821    -0.64200
H2411       H  0.06430005  0.36896789  0.25234354     0.16500
C2412       C  0.02403478  0.34776897  0.28964746     0.28700
C2413       C  0.01558568  0.32687661  0.30306935    -0.25100
C2414       C  0.02789520  0.31929308  0.32491479    -0.24400
C2415       C  0.05004291  0.33172731  0.33200470     0.40200
C2416       C  0.05806176  0.35266286  0.31886502    -0.26900
O2417       O  0.01099489  0.35577058  0.26922073    -0.58800
H2418       H  0.99868841  0.31750427  0.29716843     0.15800
O2419       O  0.06325681  0.32444295  0.35263399    -0.60200
H2420       H  0.07443922  0.36266492  0.32524444     0.14300
H2421       H  0.07597318  0.41276837  0.22020860     0.46100
H2422       H  0.01827727  0.34652987  0.25493145     0.41500
H2423       H  0.07959204  0.31857300  0.34620113     0.45000
H2424       H  0.02338824  0.41040625  0.32225413     0.36400
C2425       C  0.00233422  0.36064153  0.44778881    -0.27800
C2426       C  0.98429113  0.37844751  0.44093957     0.01800
C2427       C  0.96639765  0.37161342  0.42289184     0.29900
C2428       C  0.96762576  0.34820888  0.41129541    -0.19600
C2429       C  0.98557924  0.33045438  0.41830451    -0.29000
C2430       C  0.00263152  0.33673117  0.43723206     0.43900
C2431       C  0.98493017  0.40407571  0.45219685     0.05100
O2432       O  0.94762494  0.38763179  0.41629204    -0.57500
H2433       H  0.95439442  0.34395190  0.39667339     0.18000
O2434       O  0.02086317  0.32031990  0.44435602    -0.64200
H2435       H  0.01683865  0.36540175  0.46095335     0.16500
C2436       C  0.99028216  0.40756500  0.47773429     0.28700
C2437       C  0.99305117  0.43157868  0.48743798    -0.25100
C2438       C  0.98938662  0.45277454  0.47257559    -0.24400
C2439       C  0.98270641  0.44959151  0.44742217     0.40200
C2440       C  0.98104158  0.42542680  0.43731214    -0.26900
O2441       O  0.99270245  0.38764550  0.49357216    -0.58800
H2442       H  0.99794849  0.43370519  0.50690894     0.15800
O2443       O  0.97745805  0.46991269  0.43278904    -0.60200
H2444       H  0.97717088  0.42353027  0.41761720     0.14300
H2445       H  0.01364616  0.31110330  0.45872704     0.46100
H2446       H  0.97544104  0.38348074  0.49887903     0.41500
H2447       H  0.98973509  0.46954123  0.41890853     0.45000
H2448       H  0.93389044  0.38423328  0.42826894     0.36400
C2449       C  0.82437447  0.22047567  0.30375639    -0.27800
C2450       C  0.84338470  0.23781108  0.29788062     0.01800
C2451       C  0.83780638  0.25716991  0.28098773     0.29900
C2452       C  0.81403495  0.25888405  0.27030250    -0.19600
C2453       C  0.79509307  0.24175318  0.27625476    -0.29000
C2454       C  0.80038346  0.22244258  0.29321342     0.43900
C2455       C  0.86860295  0.23633857  0.31000110     0.05100
O2456       O  0.85537692  0.27483192  0.27502632    -0.57500
H2457       H  0.81036822  0.27367517  0.25706003     0.18000
O2458       O  0.78240603  0.20525126  0.29932643    -0.64200
H2459       H  0.82815367  0.20532209  0.31653854     0.16500
C2460       C  0.87088563  0.23470652  0.33613132     0.28700
C2461       C  0.89453672  0.23497299  0.34732021    -0.25100
C2462       C  0.91657800  0.23742451  0.33305574    -0.24400
C2463       C  0.91438823  0.23863912  0.30688555     0.40200
C2464       C  0.89065692  0.23795425  0.29560903    -0.26900
O2465       O  0.85006729  0.23375818  0.35108510    -0.58800
H2466       H  0.89551069  0.23415896  0.36748100     0.15800
O2467       O  0.93524418  0.24066894  0.29212305    -0.60200
H2468       H  0.88948308  0.23892460  0.27547573     0.14300
H2469       H  0.77236563  0.21319754  0.31269617     0.46100
H2470       H  0.84509969  0.25138797  0.35361276     0.41500
H2471       H  0.94004347  0.22327842  0.28809905     0.45000
H2472       H  0.85238867  0.28874720  0.28682639     0.36400
C2473       C  0.10991926  0.25775307  0.29833807    -0.27800
C2474       C  0.13109811  0.26394328  0.31256461     0.01800
C2475       C  0.12759192  0.27119415  0.33756961     0.29900
C2476       C  0.10354468  0.27177858  0.34791004    -0.19600
C2477       C  0.08246413  0.26423627  0.33414286    -0.29000
C2478       C  0.08590491  0.25744902  0.30897639     0.43900
C2479       C  0.15662408  0.26208518  0.30127907     0.05100
O2480       O  0.14758775  0.27692642  0.35241227    -0.57500
H2481       H  0.10160217  0.27740426  0.36720667     0.18000
O2482       O  0.06600802  0.25052719  0.29453069    -0.64200
H2483       H  0.11201115  0.25277715  0.27887743     0.16500
C2484       C  0.16374769  0.24065099  0.28786006     0.28700
C2485       C  0.18709606  0.23961272  0.27614127    -0.25100
C2486       C  0.20427230  0.25933708  0.27802597    -0.24400
C2487       C  0.19780747  0.28032045  0.29244132     0.40200
C2488       C  0.17401835  0.28169526  0.30369570    -0.26900
O2489       O  0.14841333  0.22013901  0.28701944    -0.58800
H2490       H  0.19187568  0.22316083  0.26543331     0.15800
O2491       O  0.21475067  0.29919557  0.29601182    -0.60200
H2492       H  0.16908019  0.29828774  0.31408554     0.14300
H2493       H  0.06566233  0.23205090  0.29524338     0.46100
H2494       H  0.14263352  0.21901818  0.26952222     0.41500
H2495       H  0.20713766  0.31431430  0.28862337     0.45000
H2496       H  0.15299915  0.26079678  0.35965106     0.36400
C2497       C  0.77007707  0.44952851  0.60587785    -0.27800
C2498       C  0.79562613  0.44915185  0.61156572     0.01800
C2499       C  0.81240692  0.43780233  0.59471348     0.29900
C2500       C  0.80337178  0.42500582  0.57394746    -0.19600
C2501       C  0.77774627  0.42415155  0.56902969    -0.29000
C2502       C  0.76108568  0.43717034  0.58468920     0.43900
C2503       C  0.80451374  0.45772155  0.63628815     0.05100
O2504       O  0.83761247  0.43800281  0.59915303    -0.57500
H2505       H  0.81636846  0.41495364  0.56216390     0.18000
O2506       O  0.73584290  0.43625106  0.58056885    -0.64200
H2507       H  0.75690599  0.45800928  0.61867319     0.16500
C2508       C  0.80010574  0.48201806  0.64527145     0.28700
C2509       C  0.81129667  0.48989944  0.66760473    -0.25100
C2510       C  0.82691113  0.47374333  0.68103799    -0.24400
C2511       C  0.82980143  0.44898385  0.67280500     0.40200
C2512       C  0.81837948  0.44110198  0.65087256    -0.26900
O2513       O  0.78655598  0.49868885  0.63146730    -0.58800
H2514       H  0.80911098  0.50909297  0.67350034     0.15800
O2515       O  0.84420766  0.43241514  0.68585064    -0.60200
H2516       H  0.82116076  0.42205862  0.64471810     0.14300
H2517       H  0.72986705  0.42136376  0.58982728     0.46100
H2518       H  0.76991415  0.49931339  0.63960802     0.41500
H2519       H  0.86024863  0.43148271  0.67660574     0.45000
H2520       H  0.84440078  0.45143487  0.58836188     0.36400
C2521       C  0.77958918  0.54185035  0.90677477    -0.27800
C2522       C  0.78126230  0.55356607  0.88337433     0.01800
C2523       C  0.77349098  0.57839995  0.88072765     0.29900
C2524       C  0.76575609  0.59171255  0.90162889    -0.19600
C2525       C  0.76575188  0.58060668  0.92534974    -0.29000
C2526       C  0.77166910  0.55523082  0.92777480     0.43900
C2527       C  0.79601276  0.54205929  0.86329922     0.05100
O2528       O  0.77520017  0.59035781  0.85814875    -0.57500
H2529       H  0.76077336  0.61117690  0.89944339     0.18000
O2530       O  0.77207885  0.54407994  0.95077409    -0.64200
H2531       H  0.78593599  0.52281073  0.90898686     0.16500
C2532       C  0.82184059  0.53922666  0.86661887     0.28700
C2533       C  0.83677854  0.53183706  0.84671084    -0.25100
C2534       C  0.82636697  0.52708021  0.82322754    -0.24400
C2535       C  0.80038010  0.52933823  0.81994898     0.40200
C2536       C  0.78536297  0.53714153  0.83993526    -0.26900
O2537       O  0.83277461  0.54444122  0.88912796    -0.58800
H2538       H  0.85667406  0.52985037  0.84970682     0.15800
O2539       O  0.78972876  0.52523412  0.79710176    -0.60200
H2540       H  0.76553307  0.53983995  0.83712239     0.14300
H2541       H  0.75550791  0.53601265  0.95259393     0.46100
H2542       H  0.83681010  0.56248826  0.88853028     0.41500
H2543       H  0.78375259  0.50773304  0.79762481     0.45000
H2544       H  0.79222069  0.59767332  0.85767962     0.36400
C2545       C  0.94732961  0.49221188  0.63886374    -0.27800
C2546       C  0.94171169  0.51107762  0.62150165     0.01800
C2547       C  0.92550196  0.53042028  0.62905008     0.29900
C2548       C  0.91472982  0.53024379  0.65300558    -0.19600
C2549       C  0.92007758  0.51120831  0.67023598    -0.29000
C2550       C  0.93675935  0.49217696  0.66293306     0.43900
C2551       C  0.95254397  0.51022128  0.59560856     0.05100
O2552       O  0.91992054  0.54961334  0.61312769    -0.57500
H2553       H  0.90189211  0.54500703  0.65806447     0.18000
O2554       O  0.94204391  0.47279186  0.67872954    -0.64200
H2555       H  0.95944273  0.47695715  0.63351437     0.16500
C2556       C  0.97827648  0.50630173  0.59160931     0.28700
C2557       C  0.98791842  0.50460739  0.56729427    -0.25100
C2558       C  0.97255303  0.50741239  0.54626742    -0.24400
C2559       C  0.94695683  0.51239288  0.55017003     0.40200
C2560       C  0.93711936  0.51320564  0.57459941    -0.26900
O2561       O  0.99429209  0.50424519  0.61138010    -0.58800
H2562       H  0.00767090  0.50099407  0.56482439     0.15800
O2563       O  0.93138105  0.51621893  0.53029633    -0.60200
H2564       H  0.91726550  0.51613125  0.57708319     0.14300
H2565       H  0.92874918  0.46025884  0.67573253     0.46100
H2566       H  0.00046291  0.52141944  0.61440590     0.41500
H2567       H  0.92442873  0.53320056  0.53248546     0.45000
H2568       H  0.93423478  0.56129269  0.61432567     0.36400
C2569       C  0.92922619  0.46675592  0.87110985    -0.27800
C2570       C  0.94293855  0.48718998  0.88020769     0.01800
C2571       C  0.94599521  0.50820835  0.86453586     0.29900
C2572       C  0.93500082  0.50877061  0.84081013    -0.19600
C2573       C  0.92014591  0.48892917  0.83237936    -0.29000
C2574       C  0.91758435  0.46768557  0.84767143     0.43900
C2575       C  0.95340196  0.48687825  0.90613073     0.05100
O2576       O  0.95882337  0.52882113  0.87258832    -0.57500
H2577       H  0.93696127  0.52542850  0.82952901     0.18000
O2578       O  0.90395388  0.44757738  0.83974137    -0.64200
H2579       H  0.92718351  0.45010298  0.88235887     0.16500
C2580       C  0.93859362  0.48031065  0.92705968     0.28700
C2581       C  0.94842829  0.48196644  0.95133127    -0.25100
C2582       C  0.97297548  0.49021461  0.95521431    -0.24400
C2583       C  0.98779862  0.49646317  0.93436054     0.40200
C2584       C  0.97819736  0.49439877  0.91019656    -0.26900
O2585       O  0.91407037  0.47360021  0.92410216    -0.58800
H2586       H  0.93675776  0.47714562  0.96715512     0.15800
O2587       O  0.01169042  0.50511596  0.93746483    -0.60200
H2588       H  0.99012401  0.49915331  0.89454175     0.14300
H2589       H  0.88739072  0.44937237  0.84783569     0.46100
H2590       H  0.91355882  0.45535678  0.92712325     0.41500
H2591       H  0.00990576  0.52320077  0.94086542     0.45000
H2592       H  0.94660132  0.53853332  0.88253744     0.36400
C2593       C  0.78159664  0.66068997  0.74266718    -0.27800
C2594       C  0.79389100  0.65395007  0.76478184     0.01800
C2595       C  0.79573914  0.67199923  0.78396647     0.29900
C2596       C  0.78635264  0.69624302  0.78045000    -0.19600
C2597       C  0.77386295  0.70272270  0.75839802    -0.29000
C2598       C  0.77123672  0.68447726  0.73963991     0.43900
C2599       C  0.80607163  0.62877937  0.76679800     0.05100
O2600       O  0.80638873  0.66607993  0.80639998    -0.57500
H2601       H  0.78832527  0.70985622  0.79522547     0.18000
O2602       O  0.75841381  0.68970056  0.71817521    -0.64200
H2603       H  0.78023288  0.64756404  0.72741046     0.16500
C2604       C  0.79407630  0.60664996  0.75886660     0.28700
C2605       C  0.80723239  0.58388649  0.75809687    -0.25100
C2606       C  0.83237574  0.58248065  0.76544820    -0.24400
C2607       C  0.84366614  0.60431821  0.77513806     0.40200
C2608       C  0.83077918  0.62705243  0.77525380    -0.26900
O2609       O  0.76933209  0.60698502  0.75233633    -0.58800
H2610       H  0.79779184  0.56738885  0.75126849     0.15800
O2611       O  0.86776470  0.60408551  0.78365169    -0.60200
H2612       H  0.84059888  0.64363714  0.78128441     0.14300
H2613       H  0.74051614  0.68793738  0.72268044     0.46100
H2614       H  0.76898363  0.60348658  0.73418158     0.41500
H2615       H  0.86642296  0.59968376  0.80157349     0.45000
H2616       H  0.79261934  0.65893092  0.81657258     0.36400
C2617       C  0.69455394  0.11470430  0.74331877    -0.27800
C2618       C  0.68980992  0.13093007  0.76342716     0.01800
C2619       C  0.67373796  0.12254425  0.78266323     0.29900
C2620       C  0.66231880  0.09895415  0.78120229    -0.19600
C2621       C  0.66705808  0.08283718  0.76106641    -0.29000
C2622       C  0.68367193  0.09085354  0.74220292     0.43900
C2623       C  0.70129747  0.15656070  0.76383033     0.05100
O2624       O  0.66898772  0.13724110  0.80304323    -0.57500
H2625       H  0.64964234  0.09322858  0.79593008     0.18000
O2626       O  0.68812034  0.07622816  0.72169410    -0.64200
H2627       H  0.70631652  0.12074437  0.72798979     0.16500
C2628       C  0.72684049  0.16029657  0.75830072     0.28700
C2629       C  0.73696926  0.18445160  0.75774500    -0.25100
C2630       C  0.72219711  0.20554484  0.76264995    -0.24400
C2631       C  0.69678663  0.20192994  0.76869387     0.40200
C2632       C  0.68660248  0.17766362  0.76925299    -0.26900
O2633       O  0.74219378  0.14045556  0.75334753    -0.58800
H2634       H  0.75651975  0.18678904  0.75301116     0.15800
O2635       O  0.68192606  0.22194604  0.77451519    -0.60200
H2636       H  0.66692482  0.17544975  0.77339796     0.14300
H2637       H  0.70409196  0.06762852  0.72521260     0.46100
H2638       H  0.74717496  0.13397615  0.76990217     0.41500
H2639       H  0.66791680  0.22156440  0.76248770     0.45000
H2640       H  0.68283314  0.13382763  0.81475926     0.36400
C2641       C  0.74335960  0.21728589  0.84209186    -0.27800
C2642       C  0.76587896  0.20563102  0.84861750     0.01800
C2643       C  0.78481494  0.20385141  0.83018732     0.29900
C2644       C  0.78065160  0.21273735  0.80585330    -0.19600
C2645       C  0.75831058  0.22495952  0.79970693    -0.29000
C2646       C  0.73971050  0.22731576  0.81821271     0.43900
C2647       C  0.76860152  0.19418852  0.87407397     0.05100
O2648       O  0.80771670  0.19403676  0.83587032    -0.57500
H2649       H  0.79533293  0.21100377  0.79201664     0.18000
O2650       O  0.71840731  0.24067445  0.81344480    -0.64200
H2651       H  0.72827720  0.21858765  0.85550254     0.16500
C2652       C  0.75988431  0.20617658  0.89596438     0.28700
C2653       C  0.75974636  0.19348588  0.91900374    -0.25100
C2654       C  0.76850379  0.16887123  0.92092955    -0.24400
C2655       C  0.77892657  0.15767609  0.89934376     0.40200
C2656       C  0.77842511  0.17005035  0.87634142    -0.26900
O2657       O  0.75189036  0.23046465  0.89512338    -0.58800
H2658       H  0.75221899  0.20281200  0.93528460     0.15800
O2659       O  0.78865813  0.13405509  0.90006897    -0.60200
H2660       H  0.78496976  0.16016684  0.85998042     0.14300
H2661       H  0.70428858  0.22921706  0.81700407     0.46100
H2662       H  0.73379261  0.22991221  0.89911379     0.41500
H2663       H  0.80663697  0.13637431  0.90379095     0.45000
H2664       H  0.81779654  0.20837973  0.84178325     0.36400
C2665       C  0.60720366  0.24528668  0.70383385    -0.27800
C2666       C  0.62969250  0.24222765  0.69048519     0.01800
C2667       C  0.62850428  0.23957255  0.66437362     0.29900
C2668       C  0.60539196  0.23986111  0.65214199    -0.19600
C2669       C  0.58286771  0.24317765  0.66536180    -0.29000
C2670       C  0.58401583  0.24592579  0.69152655     0.43900
C2671       C  0.65433220  0.24274106  0.70366037     0.05100
O2672       O  0.64991805  0.23724470  0.65046753    -0.57500
H2673       H  0.60520024  0.23796662  0.63204333     0.18000
O2674       O  0.56259009  0.24846547  0.70536529    -0.64200
H2675       H  0.60761483  0.24717880  0.72393783     0.16500
C2676       C  0.66089919  0.26295153  0.71910875     0.28700
C2677       C  0.68425425  0.26356188  0.73081157    -0.25100
C2678       C  0.70184277  0.24442936  0.72723837    -0.24400
C2679       C  0.69558331  0.22443168  0.71139767     0.40200
C2680       C  0.67192084  0.22353880  0.70003509    -0.26900
O2681       O  0.64483163  0.28255526  0.72248128    -0.58800
H2682       H  0.68879846  0.27925406  0.74268314     0.15800
O2683       O  0.71243531  0.20577418  0.70680537    -0.60200
H2684       H  0.66736833  0.20786850  0.68815342     0.14300
H2685       H  0.56067847  0.26665867  0.70800095     0.46100
H2686       H  0.64779668  0.29372808  0.70801923     0.41500
H2687       H  0.72063367  0.21038543  0.69084536     0.45000
H2688       H  0.65613753  0.25451451  0.64810223     0.36400
C2689       C  0.75755829  0.30632111  0.61776760    -0.27800
C2690       C  0.73693685  0.31052213  0.63360635     0.01800
C2691       C  0.71725778  0.32554563  0.62468894     0.29900
C2692       C  0.71878711  0.33646954  0.60091970    -0.19600
C2693       C  0.73914379  0.33174537  0.58499560    -0.29000
C2694       C  0.75852185  0.31630714  0.59359573     0.43900
C2695       C  0.73652073  0.29935329  0.65927968     0.05100
O2696       O  0.69639765  0.32971572  0.63897986    -0.57500
H2697       H  0.70396945  0.34876649  0.59494967     0.18000
O2698       O  0.77938527  0.31233829  0.57924024    -0.64200
H2699       H  0.77333894  0.29558493  0.62429445     0.16500
C2700       C  0.74393825  0.27441106  0.66319077     0.28700
C2701       C  0.74547550  0.26475165  0.68736075    -0.25100
C2702       C  0.73895966  0.27915323  0.70820445    -0.24400
C2703       C  0.73034385  0.30364870  0.70450281     0.40200
C2704       C  0.72946597  0.31367896  0.68022408    -0.26900
O2705       O  0.74969474  0.25916493  0.64347574    -0.58800
H2706       H  0.75191780  0.24578513  0.68989805     0.15800
O2707       O  0.72248101  0.31769180  0.72441468    -0.60200
H2708       H  0.72374294  0.33288301  0.67789932     0.14300
H2709       H  0.77634069  0.29625416  0.57066327     0.46100
H2710       H  0.73359758  0.25159031  0.63842796     0.41500
H2711       H  0.73465064  0.33155970  0.72580273     0.45000
H2712       H  0.68498591  0.31566837  0.63516626     0.36400
C2713       C  0.78168541  0.34059795  0.76553499    -0.27800
C2714       C  0.79462311  0.34843756  0.74411095     0.01800
C2715       C  0.79681591  0.33172012  0.72383920     0.29900
C2716       C  0.78684104  0.30755216  0.72547798    -0.19600
C2717       C  0.77376131  0.29984816  0.74686617    -0.29000
C2718       C  0.77105697  0.31675678  0.76686158     0.43900
C2719       C  0.80717249  0.37333042  0.74363613     0.05100
O2720       O  0.80867701  0.33885040  0.70227649    -0.57500
H2721       H  0.78917276  0.29487264  0.70993778     0.18000
O2722       O  0.75813230  0.31004286  0.78795891    -0.64200
H2723       H  0.78010393  0.35285617  0.78149870     0.16500
C2724       C  0.79460737  0.39557720  0.75005562     0.28700
C2725       C  0.80735465  0.41858199  0.74951471    -0.25100
C2726       C  0.83277228  0.41986260  0.74290711    -0.24400
C2727       C  0.84528240  0.39738133  0.73689247     0.40200
C2728       C  0.83251327  0.37464205  0.73723945    -0.26900
O2729       O  0.76970133  0.39513068  0.75609387    -0.58800
H2730       H  0.79732061  0.43541546  0.75439815     0.15800
O2731       O  0.87017821  0.39720182  0.73080079    -0.60200
H2732       H  0.84271896  0.35775889  0.73288577     0.14300
H2733       H  0.74033070  0.31303146  0.78397462     0.46100
H2734       H  0.76897475  0.39782198  0.77438811     0.41500
H2735       H  0.87897316  0.39343248  0.74658238     0.45000
H2736       H  0.79567715  0.34729781  0.69223876     0.36400
C2737       C  0.51704437  0.85674650  0.79943291    -0.27800
C2738       C  0.54296581  0.85914432  0.79632683     0.01800
C2739       C  0.55862444  0.83921700  0.80318399     0.29900
C2740       C  0.54869619  0.81884760  0.81588391    -0.19600
C2741       C  0.52306407  0.81722338  0.82056579    -0.29000
C2742       C  0.50700055  0.83570064  0.81124075     0.43900
C2743       C  0.55395956  0.88356423  0.78977321     0.05100
O2744       O  0.58392979  0.84039667  0.79927779    -0.57500
H2745       H  0.56126584  0.80502899  0.82326412     0.18000
O2746       O  0.48189110  0.83482284  0.81623878    -0.64200
H2747       H  0.50475785  0.87195020  0.79442656     0.16500
C2748       C  0.54651455  0.89712618  0.76859575     0.28700
C2749       C  0.55861792  0.91952440  0.76259389    -0.25100
C2750       C  0.57834813  0.92838041  0.77737661    -0.24400
C2751       C  0.58459615  0.91554171  0.79938694     0.40200
C2752       C  0.57234536  0.89347056  0.80545146    -0.26900
O2753       O  0.52819911  0.88822343  0.75316886    -0.58800
H2754       H  0.55354422  0.92916008  0.74560004     0.15800
O2755       O  0.60335320  0.92387063  0.81462974    -0.60200
H2756       H  0.57759894  0.88377044  0.82236412     0.14300
H2757       H  0.47429308  0.82725657  0.80121201     0.46100
H2758       H  0.53675882  0.87638757  0.74181982     0.41500
H2759       H  0.59477433  0.93111649  0.82932119     0.45000
H2760       H  0.58672032  0.83227984  0.78289453     0.36400
C2761       C  0.59818045  0.73062882  0.95687327    -0.27800
C2762       C  0.61005739  0.70821114  0.95080859     0.01800
C2763       C  0.59965723  0.69243779  0.93267724     0.29900
C2764       C  0.57844933  0.69991445  0.91967835    -0.19600
C2765       C  0.56739599  0.72313906  0.92445561    -0.29000
C2766       C  0.57687380  0.73816870  0.94387160     0.43900
C2767       C  0.63425975  0.70195520  0.96200991     0.05100
O2768       O  0.61036027  0.66980799  0.92738097    -0.57500
H2769       H  0.57116938  0.68788134  0.90518744     0.18000
O2770       O  0.56678754  0.76111114  0.94891273    -0.64200
H2771       H  0.60609861  0.74280244  0.97089720     0.16500
C2772       C  0.65589771  0.70154990  0.94707001     0.28700
C2773       C  0.67781517  0.69115784  0.95634519    -0.25100
C2774       C  0.67848690  0.68138495  0.98048456    -0.24400
C2775       C  0.65755577  0.68389174  0.99623120     0.40200
C2776       C  0.63547053  0.69413827  0.98690409    -0.26900
O2777       O  0.65529910  0.70978801  0.92286274    -0.58800
H2778       H  0.69385842  0.68960937  0.94425606     0.15800
O2779       O  0.65784427  0.67442502  0.01998669    -0.60200
H2780       H  0.61892252  0.69459924  0.99857829     0.14300
H2781       H  0.55557588  0.75840581  0.96342122     0.46100
H2782       H  0.65902117  0.72787070  0.92380619     0.41500
H2783       H  0.66619878  0.68736562  0.03020428     0.45000
H2784       H  0.61993035  0.67241003  0.91172972     0.36400
C2785       C  0.43830114  0.64976898  0.81681549    -0.27800
C2786       C  0.45542993  0.63656548  0.80209523     0.01800
C2787       C  0.47857231  0.64758626  0.79614903     0.29900
C2788       C  0.48504311  0.67059115  0.80672495    -0.19600
C2789       C  0.46879503  0.68246223  0.82357028    -0.29000
C2790       C  0.44485745  0.67237442  0.82775511     0.43900
C2791       C  0.44876718  0.61104336  0.79412181     0.05100
O2792       O  0.49553557  0.63540126  0.78133493    -0.57500
H2793       H  0.50357607  0.67803441  0.80341521     0.18000
O2794       O  0.42850047  0.68346908  0.84408607    -0.64200
H2795       H  0.42004204  0.64195521  0.82080009     0.16500
C2796       C  0.43868354  0.59403514  0.81155120     0.28700
C2797       C  0.42669140  0.57257334  0.80325671    -0.25100
C2798       C  0.42584943  0.56699173  0.77781472    -0.24400
C2799       C  0.43850167  0.58236744  0.76062603     0.40200
C2800       C  0.44956287  0.60452810  0.76880213    -0.26900
O2801       O  0.43896315  0.59907893  0.83662977    -0.58800
H2802       H  0.41696121  0.56096317  0.81663167     0.15800
O2803       O  0.43758961  0.57744846  0.73555261    -0.60200
H2804       H  0.45722238  0.61736003  0.75516642     0.14300
H2805       H  0.41343872  0.68748467  0.83417412     0.46100
H2806       H  0.45570243  0.59377953  0.84237847     0.41500
H2807       H  0.45237370  0.56687010  0.73213153     0.45000
H2808       H  0.50512450  0.62460216  0.79283513     0.36400
C2809       C  0.52799554  0.57440784  0.93920889    -0.27800
C2810       C  0.51585003  0.59488696  0.95037616     0.01800
C2811       C  0.50173148  0.59081869  0.97225106     0.29900
C2812       C  0.50001541  0.56683319  0.98253784    -0.19600
C2813       C  0.51185776  0.54644254  0.97123208    -0.29000
C2814       C  0.52591256  0.55031285  0.94936835     0.43900
C2815       C  0.51578234  0.61968380  0.93763853     0.05100
O2816       O  0.48801551  0.60977624  0.98262497    -0.57500
H2817       H  0.48882189  0.56398373  0.99917684     0.18000
O2818       O  0.53761695  0.53072992  0.93782634    -0.64200
H2819       H  0.53874271  0.57704709  0.92225471     0.16500
C2820       C  0.52167112  0.64210453  0.95019743     0.28700
C2821       C  0.51924076  0.66520819  0.93789217    -0.25100
C2822       C  0.51141721  0.66631428  0.91296883    -0.24400
C2823       C  0.50645194  0.64381431  0.90023690     0.40200
C2824       C  0.50848665  0.62091623  0.91257967    -0.26900
O2825       O  0.53077604  0.64148286  0.97408204    -0.58800
H2826       H  0.52376643  0.68224695  0.94774876     0.15800
O2827       O  0.49812296  0.64404343  0.87607159    -0.60200
H2828       H  0.50365908  0.60400691  0.90263747     0.14300
H2829       H  0.52613839  0.52548205  0.92435460     0.46100
H2830       H  0.51866784  0.65098100  0.98438050     0.41500
H2831       H  0.51303910  0.64039333  0.86569462     0.45000
H2832       H  0.49531761  0.61263764  0.99935194     0.36400
C2833       C  0.62664978  0.76145107  0.83254529    -0.27800
C2834       C  0.62777270  0.76198111  0.80643068     0.01800
C2835       C  0.60515479  0.76081950  0.79293862     0.29900
C2836       C  0.58211973  0.75922558  0.80559516    -0.19600
C2837       C  0.58108243  0.75919959  0.83178861    -0.29000
C2838       C  0.60379661  0.76008619  0.84517299     0.43900
C2839       C  0.65274199  0.76244390  0.79381212     0.05100
O2840       O  0.60529138  0.76144981  0.76738022    -0.57500
H2841       H  0.56501817  0.75852539  0.79490709     0.18000
O2842       O  0.60404132  0.75917516  0.87074406    -0.64200
H2843       H  0.64370195  0.76154155  0.84333928     0.16500
C2844       C  0.67173917  0.77921879  0.80126405     0.28700
C2845       C  0.69583983  0.77752433  0.79093449    -0.25100
C2846       C  0.70134802  0.75939249  0.77292783    -0.24400
C2847       C  0.68219419  0.74345308  0.76466481     0.40200
C2848       C  0.65825109  0.74489614  0.77516578    -0.26900
O2849       O  0.66697401  0.79727298  0.81873238    -0.58800
H2850       H  0.71028934  0.79021916  0.79711465     0.15800
O2851       O  0.68669665  0.72661727  0.74593796    -0.60200
H2852       H  0.64413294  0.73177446  0.76912450     0.14300
H2853       H  0.60444983  0.74116811  0.87498301     0.46100
H2854       H  0.66104654  0.81186992  0.80908650     0.41500
H2855       H  0.68960975  0.71053202  0.75445878     0.45000
H2856       H  0.60633311  0.77937103  0.76297710     0.36400
C2857       C  0.47031089  0.87513650  0.92244789    -0.27800
C2858       C  0.48889610  0.88187661  0.93965526     0.01800
C2859       C  0.50770889  0.86414860  0.94507558     0.29900
C2860       C  0.50745164  0.84048215  0.93381308    -0.19600
C2861       C  0.48929775  0.83412377  0.91610398    -0.29000
C2862       C  0.47067487  0.85185570  0.91040949     0.43900
C2863       C  0.48863532  0.90719865  0.95182669     0.05100
O2864       O  0.52701044  0.86995479  0.96077180    -0.57500
H2865       H  0.52225217  0.82745383  0.93813623     0.18000
O2866       O  0.45281189  0.84673838  0.89286472    -0.64200
H2867       H  0.45529413  0.88791792  0.91824939     0.16500
C2868       C  0.48394991  0.92935898  0.93822779     0.28700
C2869       C  0.48543820  0.95278275  0.95001499    -0.25100
C2870       C  0.49197577  0.95476322  0.97526863    -0.24400
C2871       C  0.49576022  0.93273617  0.98903758     0.40200
C2872       C  0.49378568  0.90935736  0.97743815    -0.26900
O2873       O  0.47953353  0.92850607  0.91306868    -0.58800
H2874       H  0.48234338  0.96952127  0.93915828     0.15800
O2875       O  0.50319338  0.93401324  0.01347313    -0.60200
H2876       H  0.49676149  0.89280401  0.98858737     0.14300
H2877       H  0.43759889  0.84222118  0.90244624     0.46100
H2878       H  0.46176065  0.93328830  0.91109027     0.41500
H2879       H  0.49025136  0.92495428  0.02317383     0.45000
H2880       H  0.53935304  0.87892839  0.95024459     0.36400
C2881       C  0.19513146  0.82784673  0.77675590    -0.27800
C2882       C  0.19934482  0.84520884  0.75750177     0.01800
C2883       C  0.21500515  0.83845480  0.73746563     0.29900
C2884       C  0.22608849  0.81485370  0.73690504    -0.19600
C2885       C  0.22193160  0.79750020  0.75612561    -0.29000
C2886       C  0.20632579  0.80416505  0.77623453     0.43900
C2887       C  0.18661285  0.86989206  0.75797839     0.05100
O2888       O  0.21927827  0.85462578  0.71808924    -0.57500
H2889       H  0.23805572  0.80999857  0.72130971     0.18000
O2890       O  0.20129527  0.78740969  0.79494166    -0.64200
H2891       H  0.18312736  0.83268617  0.79231314     0.16500
C2892       C  0.16053370  0.87141296  0.76092196     0.28700
C2893       C  0.14870643  0.89462878  0.76107582    -0.25100
C2894       C  0.16232426  0.91684905  0.75773941    -0.24400
C2895       C  0.18842455  0.91537526  0.75452371     0.40200
C2896       C  0.20037216  0.89206689  0.75492170    -0.26900
O2897       O  0.14628128  0.85024241  0.76305515    -0.58800
H2898       H  0.12858764  0.89512403  0.76318293     0.15800
O2899       O  0.20250394  0.93654399  0.75150827    -0.60200
H2900       H  0.22047552  0.89130668  0.75280457     0.14300
H2901       H  0.20807362  0.79496065  0.81038141     0.46100
H2902       H  0.14296068  0.84490056  0.74567506     0.41500
H2903       H  0.20441013  0.93858338  0.73321551     0.45000
H2904       H  0.20579202  0.85122094  0.70594629     0.36400
C2905       C  0.30296371  0.61379491  0.75631780    -0.27800
C2906       C  0.31099613  0.63174502  0.73879061     0.01800
C2907       C  0.33036506  0.62500117  0.72213740     0.29900
C2908       C  0.34150351  0.60134393  0.72362482    -0.19600
C2909       C  0.33311641  0.58331526  0.74082663    -0.29000
C2910       C  0.31348573  0.58980512  0.75716435     0.43900
C2911       C  0.29921956  0.65726814  0.73831929     0.05100
O2912       O  0.33857396  0.64127839  0.70415693    -0.57500
H2913       H  0.35679605  0.59706452  0.71107084     0.18000
O2914       O  0.30492568  0.57317760  0.77466353    -0.64200
H2915       H  0.28876046  0.61847688  0.76992352     0.16500
C2916       C  0.27314331  0.66028466  0.74093781     0.28700
C2917       C  0.26262820  0.68421378  0.74210995    -0.25100
C2918       C  0.27733977  0.70578546  0.73981482    -0.24400
C2919       C  0.30320740  0.70288828  0.73565529     0.40200
C2920       C  0.31398249  0.67895102  0.73567207    -0.26900
O2921       O  0.25759803  0.63992233  0.74142369    -0.58800
H2922       H  0.24270907  0.68592481  0.74509299     0.15800
O2923       O  0.31823420  0.72324327  0.73181889    -0.60200
H2924       H  0.33405249  0.67745163  0.73384442     0.14300
H2925       H  0.31506410  0.57640309  0.78975578     0.46100
H2926       H  0.25013057  0.63966012  0.75838001     0.41500
H2927       H  0.31622447  0.72751303  0.71395905     0.45000
H2928       H  0.32691284  0.63909389  0.69001605     0.36400
C2929       C  0.33661406  0.75995270  0.78571493    -0.27800
C2930       C  0.34149856  0.73980339  0.80163465     0.01800
C2931       C  0.32273140  0.72167705  0.80541862     0.29900
C2932       C  0.29968289  0.72370628  0.79306689    -0.19600
C2933       C  0.29499602  0.74378235  0.77691599    -0.29000
C2934       C  0.31366654  0.76205688  0.77350605     0.43900
C2935       C  0.36611052  0.73841927  0.81443374     0.05100
O2936       O  0.32680865  0.70186326  0.82102375    -0.57500
H2937       H  0.28546752  0.70962318  0.79604725     0.18000
O2938       O  0.30964193  0.78208566  0.75813174    -0.64200
H2939       H  0.35065533  0.77424357  0.78285895     0.16500
C2940       C  0.38855112  0.73696864  0.80068439     0.28700
C2941       C  0.41170019  0.73800779  0.81291322    -0.25100
C2942       C  0.41296754  0.74036409  0.83897618    -0.24400
C2943       C  0.39040328  0.74141022  0.85274343     0.40200
C2944       C  0.36731664  0.74034009  0.84048206    -0.26900
O2945       O  0.38798127  0.73397175  0.77529496    -0.58800
H2946       H  0.42871211  0.73685392  0.80198516     0.15800
O2947       O  0.39061860  0.74424177  0.87816303    -0.60200
H2948       H  0.35025966  0.74177312  0.85131368     0.14300
H2949       H  0.31388806  0.77612709  0.74114057     0.46100
H2950       H  0.39132197  0.75076126  0.76830216     0.41500
H2951       H  0.39172397  0.76249284  0.88101992     0.45000
H2952       H  0.33362331  0.68852546  0.81017405     0.36400
C2953       C  0.18193563  0.54953539  0.35932801    -0.27800
C2954       C  0.20130832  0.53412044  0.36725764     0.01800
C2955       C  0.20872096  0.51375603  0.35256280     0.29900
C2956       C  0.19588034  0.50844755  0.33042897    -0.19600
C2957       C  0.17563352  0.52334053  0.32299479    -0.29000
C2958       C  0.16899372  0.54425974  0.33757600     0.43900
C2959       C  0.21331118  0.54037285  0.39096487     0.05100
O2960       O  0.22747814  0.49828419  0.36036808    -0.57500
H2961       H  0.20098283  0.49206963  0.31976554     0.18000
O2962       O  0.14962962  0.55957175  0.33093213    -0.64200
H2963       H  0.17647868  0.56555748  0.37039729     0.16500
C2964       C  0.23613237  0.55325392  0.39098354     0.28700
C2965       C  0.24351835  0.56608324  0.41235754    -0.25100
C2966       C  0.22808674  0.56653967  0.43349367    -0.24400
C2967       C  0.20663820  0.55153491  0.43434273     0.40200
C2968       C  0.19918246  0.53869826  0.41298908    -0.26900
O2969       O  0.25019851  0.55514175  0.36963725    -0.58800
H2970       H  0.26046773  0.57710429  0.41186798     0.15800
O2971       O  0.19217440  0.55033244  0.45536530    -0.60200
H2972       H  0.18153061  0.52879186  0.41308025     0.14300
H2973       H  0.13549558  0.55476326  0.34195308     0.46100
H2974       H  0.24455166  0.57071583  0.36143466     0.41500
H2975       H  0.19934020  0.53658685  0.46540105     0.45000
H2976       H  0.24263520  0.50412335  0.35144375     0.36400
C2977       C  0.26841049  0.55355881  0.60721633    -0.27800
C2978       C  0.29405206  0.55259228  0.61211617     0.01800
C2979       C  0.31122097  0.56137456  0.59421235     0.29900
C2980       C  0.30247460  0.57302493  0.57270710    -0.19600
C2981       C  0.27688383  0.57562816  0.56863645    -0.29000
C2982       C  0.25973803  0.56509021  0.58556519     0.43900
C2983       C  0.30269172  0.54459676  0.63681731     0.05100
O2984       O  0.33646770  0.55865467  0.59775467    -0.57500
H2985       H  0.31566043  0.58074596  0.55961933     0.18000
O2986       O  0.23451923  0.56752884  0.58198687    -0.64200
H2987       H  0.25510350  0.54669169  0.62086082     0.16500
C2988       C  0.31629312  0.56119921  0.65183093     0.28700
C2989       C  0.32643511  0.55285099  0.67417448    -0.25100
C2990       C  0.32316403  0.52811402  0.68188937    -0.24400
C2991       C  0.30802419  0.51197815  0.66777320     0.40200
C2992       C  0.29775466  0.52035811  0.64533036    -0.26900
O2993       O  0.31967452  0.58559092  0.64472514    -0.58800
H2994       H  0.33803599  0.56539978  0.68485027     0.15800
O2995       O  0.30464098  0.48760354  0.67477874    -0.60200
H2996       H  0.28696050  0.50760526  0.63399166     0.14300
H2997       H  0.22995067  0.58347834  0.59015930     0.46100
H2998       H  0.33790751  0.58767704  0.64213492     0.41500
H2999       H  0.31839487  0.47828346  0.66660395     0.45000
H3000       H  0.34350309  0.57577567  0.59801113     0.36400
C3001       C  0.34860362  0.68400148  0.43611053    -0.27800
C3002       C  0.35806204  0.70344720  0.45069224     0.01800
C3003       C  0.34634176  0.70955171  0.47334724     0.29900
C3004       C  0.32556409  0.69575039  0.48138809    -0.19600
C3005       C  0.31671981  0.67555960  0.46721541    -0.29000
C3006       C  0.32808746  0.67013289  0.44408817     0.43900
C3007       C  0.38005416  0.71698651  0.44125745     0.05100
O3008       O  0.35485529  0.72909466  0.48746046    -0.57500
H3009       H  0.31712297  0.70013136  0.49924287     0.18000
O3010       O  0.31995715  0.65062780  0.42964788    -0.64200
H3011       H  0.35751799  0.67921669  0.41856996     0.16500
C3012       C  0.40334085  0.71554379  0.45331217     0.28700
C3013       C  0.42494398  0.72384357  0.44095412    -0.25100
C3014       C  0.42336632  0.73317033  0.41660696    -0.24400
C3015       C  0.39985673  0.73592183  0.40527999     0.40200
C3016       C  0.37845580  0.72795228  0.41765291    -0.26900
O3017       O  0.40543058  0.70395162  0.47600280    -0.58800
H3018       H  0.44299148  0.72153047  0.44970419     0.15800
O3019       O  0.39772206  0.74530046  0.38157287    -0.60200
H3020       H  0.36062817  0.72908821  0.40822463     0.14300
H3021       H  0.31435913  0.65820405  0.41375586     0.46100
H3022       H  0.40841773  0.71755637  0.48814643     0.41500
H3023       H  0.39540798  0.76350751  0.38374819     0.45000
H3024       H  0.36256010  0.72138375  0.50237181     0.36400
C3025       C  0.37568103  0.58134022  0.52785159    -0.27800
C3026       C  0.38205085  0.56284118  0.51038132     0.01800
C3027       C  0.36398134  0.55592416  0.49245452     0.29900
C3028       C  0.34017165  0.56679678  0.49275113    -0.19600
C3029       C  0.33418242  0.58576221  0.50976375    -0.29000
C3030       C  0.35250477  0.59340729  0.52701004     0.43900
C3031       C  0.40749565  0.55116360  0.51080855     0.05100
O3032       O  0.36957439  0.53917298  0.47395144    -0.57500
H3033       H  0.32673588  0.56119016  0.47877648     0.18000
O3034       O  0.34777998  0.61230893  0.54358891    -0.64200
H3035       H  0.38879505  0.58673773  0.54217989     0.16500
C3036       C  0.42939124  0.56549802  0.51460485     0.28700
C3037       C  0.45293199  0.55402545  0.51476033    -0.25100
C3038       C  0.45543252  0.52853812  0.50941265    -0.24400
C3039       C  0.43368292  0.51426391  0.50547542     0.40200
C3040       C  0.41009235  0.52535831  0.50698995    -0.26900
O3041       O  0.42819637  0.59089203  0.51724535    -0.58800
H3042       H  0.46941032  0.56531220  0.51786876     0.15800
O3043       O  0.43530315  0.48945200  0.49952957    -0.60200
H3044       H  0.39376444  0.51368016  0.50467618     0.14300
H3045       H  0.35541192  0.62738662  0.53601536     0.46100
H3046       H  0.42769734  0.59753848  0.49999855     0.41500
H3047       H  0.43691387  0.48898176  0.48110366     0.45000
H3048       H  0.37798423  0.54910160  0.46075373     0.36400
C3049       C  0.12689717  0.57389078  0.47136877    -0.27800
C3050       C  0.11978833  0.55763994  0.49067281     0.01800
C3051       C  0.13698267  0.55289424  0.51004429     0.29900
C3052       C  0.16050354  0.56449826  0.50995639    -0.19600
C3053       C  0.16707290  0.58154688  0.49116012    -0.29000
C3054       C  0.14998682  0.58613399  0.47174657     0.43900
C3055       C  0.09433345  0.54618062  0.49052715     0.05100
O3056       O  0.13075864  0.53756161  0.52958266    -0.57500
H3057       H  0.17323580  0.56091267  0.52518363     0.18000
O3058       O  0.15600033  0.60200790  0.45257041    -0.64200
H3059       H  0.11439017  0.57730288  0.45592492     0.16500
C3060       C  0.07281071  0.56070206  0.48597741     0.28700
C3061       C  0.04909610  0.54959089  0.48586333    -0.25100
C3062       C  0.04615735  0.52417914  0.49135320    -0.24400
C3063       C  0.06760300  0.50964484  0.49581015     0.40200
C3064       C  0.09137653  0.52053210  0.49499124    -0.26900
O3065       O  0.07463618  0.58594696  0.48234232    -0.58800
H3066       H  0.03285472  0.56104533  0.48234966     0.15800
O3067       O  0.06548542  0.48475556  0.50134039    -0.60200
H3068       H  0.10756037  0.50886864  0.49807077     0.14300
H3069       H  0.14753504  0.61792743  0.45665797     0.46100
H3070       H  0.07346415  0.59334803  0.49925007     0.41500
H3071       H  0.06232587  0.48406635  0.51955896     0.45000
H3072       H  0.12139248  0.54826886  0.54142188     0.36400
C3073       C  0.24177029  0.70558002  0.60638448    -0.27800
C3074       C  0.23891025  0.69150802  0.62844620     0.01800
C3075       C  0.23653510  0.66544705  0.62642593     0.29900
C3076       C  0.23705776  0.65395436  0.60300746    -0.19600
C3077       C  0.24039691  0.66781766  0.58090336    -0.29000
C3078       C  0.24257223  0.69396611  0.58280594     0.43900
C3079       C  0.23964124  0.70372893  0.65355403     0.05100
O3080       O  0.23446713  0.65083375  0.64733478    -0.57500
H3081       H  0.23549472  0.63382615  0.60231225     0.18000
O3082       O  0.24559462  0.70836609  0.56188262    -0.64200
H3083       H  0.24348231  0.72567498  0.60745062     0.16500
C3084       C  0.25966133  0.71941377  0.66026320     0.28700
C3085       C  0.26079731  0.72971789  0.68425187    -0.25100
C3086       C  0.24228220  0.72463807  0.70217839    -0.24400
C3087       C  0.22233961  0.70879131  0.69570344     0.40200
C3088       C  0.22101556  0.69867271  0.67151488    -0.26900
O3089       O  0.27849583  0.72452486  0.64362891    -0.58800
H3090       H  0.27625298  0.74188431  0.68891633     0.15800
O3091       O  0.20389827  0.70348327  0.71272406    -0.60200
H3092       H  0.20539130  0.68675861  0.66679351     0.14300
H3093       H  0.22849607  0.71093566  0.55535673     0.46100
H3094       H  0.29002411  0.71012857  0.64475310     0.41500
H3095       H  0.20642907  0.68578409  0.71740604     0.45000
H3096       H  0.25188101  0.64704477  0.65226063     0.36400
C3097       C  0.34284514  0.75513013  0.26831256    -0.27800
C3098       C  0.34750856  0.76298441  0.29287066     0.01800
C3099       C  0.32683469  0.76930889  0.30812719     0.29900
C3100       C  0.30228914  0.76748175  0.29890095    -0.19600
C3101       C  0.29780841  0.75944814  0.27439901    -0.29000
C3102       C  0.31839509  0.75321363  0.25917633     0.43900
C3103       C  0.37381958  0.76379420  0.30256293     0.05100
O3104       O  0.33036439  0.77689160  0.33226793    -0.57500
H3105       H  0.28672263  0.77218217  0.31094905     0.18000
O3106       O  0.31476253  0.74506424  0.23521773    -0.64200
H3107       H  0.35826733  0.75044225  0.25607961     0.16500
C3108       C  0.38981554  0.74296053  0.30046743     0.28700
C3109       C  0.41382813  0.74348393  0.31105276    -0.25100
C3110       C  0.42244671  0.76449255  0.32412553    -0.24400
C3111       C  0.40686511  0.78564261  0.32543624     0.40200
C3112       C  0.38297085  0.78527194  0.31455119    -0.26900
O3113       O  0.38146086  0.72128872  0.28976231    -0.58800
H3114       H  0.42518814  0.72680580  0.31024795     0.15800
O3115       O  0.41488987  0.80685031  0.33724893    -0.60200
H3116       H  0.37135860  0.80173518  0.31588588     0.14300
H3117       H  0.31078268  0.72706045  0.23678022     0.46100
H3118       H  0.39013984  0.72026920  0.27342678     0.41500
H3119       H  0.40694392  0.80638738  0.35397113     0.45000
H3120       H  0.33082556  0.76131913  0.34220889     0.36400
C3121       C  0.28500450  0.83917206  0.26154307    -0.27800
C3122       C  0.29705614  0.84733658  0.23968842     0.01800
C3123       C  0.29831633  0.83076561  0.21916678     0.29900
C3124       C  0.28851201  0.80652229  0.22106089    -0.19600
C3125       C  0.27607934  0.79868027  0.24277432    -0.29000
C3126       C  0.27408614  0.81546442  0.26294046     0.43900
C3127       C  0.30930386  0.87250766  0.23896147     0.05100
O3128       O  0.30886268  0.83813032  0.19701715    -0.57500
H3129       H  0.29023519  0.79397415  0.20533755     0.18000
O3130       O  0.26145075  0.80883640  0.28423882    -0.64200
H3131       H  0.28417479  0.85110543  0.27779142     0.16500
C3132       C  0.29749883  0.89416890  0.24832744     0.28700
C3133       C  0.31012320  0.91723717  0.24822212    -0.25100
C3134       C  0.33469767  0.91929859  0.23910429    -0.24400
C3135       C  0.34633494  0.89757521  0.22960878     0.40200
C3136       C  0.33371693  0.87470187  0.22962594    -0.26900
O3137       O  0.27337003  0.89315761  0.25696697    -0.58800
H3138       H  0.30068562  0.93349186  0.25562487     0.15800
O3139       O  0.37009428  0.89836324  0.21999889    -0.60200
H3140       H  0.34348659  0.85837866  0.22284616     0.14300
H3141       H  0.24367593  0.81256896  0.28077026     0.46100
H3142       H  0.27447576  0.89589732  0.27523715     0.41500
H3143       H  0.38111821  0.89339796  0.23394361     0.45000
H3144       H  0.29517807  0.84632623  0.18770487     0.36400
C3145       C  0.19826347  0.61240702  0.24564754    -0.27800
C3146       C  0.19247443  0.63008853  0.26418239     0.01800
C3147       C  0.17567882  0.62297749  0.28332315     0.29900
C3148       C  0.16431671  0.59932696  0.28298914    -0.19600
C3149       C  0.17014575  0.58172768  0.26442535    -0.29000
C3150       C  0.18779754  0.58838874  0.24597162     0.43900
C3151       C  0.20357098  0.65586100  0.26294477     0.05100
O3152       O  0.17003334  0.63901442  0.30243067    -0.57500
H3153       H  0.15067238  0.59485439  0.29724064     0.18000
O3154       O  0.19368182  0.57221951  0.22704784    -0.64200
H3155       H  0.21048035  0.61737120  0.23030670     0.16500
C3156       C  0.22905804  0.65960194  0.25716725     0.28700
C3157       C  0.23880259  0.68382251  0.25510806    -0.25100
C3158       C  0.22382272  0.70492740  0.25906940    -0.24400
C3159       C  0.19858521  0.70132624  0.26573761     0.40200
C3160       C  0.18856305  0.67706822  0.26704409    -0.26900
O3161       O  0.24489104  0.63968108  0.25449571    -0.58800
H3162       H  0.25835428  0.68615279  0.25036918     0.15800
O3163       O  0.18350362  0.72132848  0.27081279    -0.60200
H3164       H  0.16886893  0.67491999  0.27112849     0.14300
H3165       H  0.20914835  0.56373597  0.23254963     0.46100
H3166       H  0.24994184  0.63963731  0.23666865     0.41500
H3167       H  0.18122762  0.72128536  0.28916718     0.45000
H3168       H  0.18389686  0.63720860  0.31449206     0.36400
C3169       C  0.24302785  0.71507899  0.33695623    -0.27800
C3170       C  0.26329819  0.69941927  0.34235108     0.01800
C3171       C  0.28190419  0.69609053  0.32381447     0.29900
C3172       C  0.27985859  0.70814202  0.30054536    -0.19600
C3173       C  0.25961566  0.72394459  0.29550423    -0.29000
C3174       C  0.24136095  0.72754323  0.31412072     0.43900
C3175       C  0.26418670  0.68648593  0.36715238     0.05100
O3176       O  0.30220982  0.68123688  0.32826069    -0.57500
H3177       H  0.29405650  0.70513968  0.28643075     0.18000
O3178       O  0.22158316  0.74321056  0.31006326    -0.64200
H3179       H  0.22820065  0.71761040  0.35050320     0.16500
C3180       C  0.25902838  0.69943035  0.38954693     0.28700
C3181       C  0.25730551  0.68658858  0.41231336    -0.25100
C3182       C  0.26098958  0.66069391  0.41359285    -0.24400
C3183       C  0.26695509  0.64784182  0.39128651     0.40200
C3184       C  0.26849364  0.66069490  0.36847862    -0.26900
O3185       O  0.25542730  0.72473384  0.38942085    -0.58800
H3186       H  0.25297777  0.69702343  0.42906600     0.15800
O3187       O  0.27088862  0.62259721  0.39136048    -0.60200
H3188       H  0.27216938  0.65020040  0.35161226     0.14300
H3189       H  0.22745199  0.75989527  0.31544149     0.46100
H3190       H  0.27233584  0.73204701  0.39111006     0.41500
H3191       H  0.25482127  0.61518985  0.38596048     0.45000
H3192       H  0.31546085  0.69276259  0.33406092     0.36400
C3193       C  0.90986816  0.72163055  0.03624003    -0.27800
C3194       C  0.88820095  0.71271492  0.04801772     0.01800
C3195       C  0.88741647  0.71038199  0.07404893     0.29900
C3196       C  0.90803240  0.71715392  0.08808042    -0.19600
C3197       C  0.92971563  0.72656685  0.07660550    -0.29000
C3198       C  0.93055484  0.72887235  0.05041985     0.43900
C3199       C  0.86722274  0.70315991  0.03339300     0.05100
O3200       O  0.86698810  0.70021268  0.08581683    -0.57500
H3201       H  0.90681508  0.71511752  0.10815081     0.18000
O3202       O  0.95158310  0.73744563  0.03850881    -0.64200
H3203       H  0.91072312  0.72286383  0.01609008     0.16500
C3204       C  0.84313466  0.71327580  0.03627672     0.28700
C3205       C  0.82240317  0.70001081  0.02771093    -0.25100
C3206       C  0.82564590  0.67663841  0.01659151    -0.24400
C3207       C  0.84986342  0.66745915  0.01209108     0.40200
C3208       C  0.87052848  0.68090144  0.02027206    -0.26900
O3209       O  0.83962348  0.73514519  0.04904421    -0.58800
H3210       H  0.80380504  0.70718729  0.03114009     0.15800
O3211       O  0.85342556  0.64512476  0.00012305    -0.60200
H3212       H  0.88902349  0.67302915  0.01799666     0.14300
H3213       H  0.94859782  0.75548161  0.03576688     0.46100
H3214       H  0.84240360  0.74850009  0.03656008     0.41500
H3215       H  0.85737879  0.63298560  0.01348798     0.45000
H3216       H  0.85813307  0.71448342  0.09356747     0.36400
C3217       C  0.03970376  0.66344677  0.21572269    -0.27800
C3218       C  0.03593153  0.63887169  0.20734421     0.01800
C3219       C  0.02197487  0.63471657  0.18556785     0.29900
C3220       C  0.01405963  0.65493149  0.17131602    -0.19600
C3221       C  0.01945867  0.67940511  0.17870760    -0.29000
C3222       C  0.03124121  0.68372495  0.20164473     0.43900
C3223       C  0.05015196  0.61810266  0.21847535     0.05100
O3224       O  0.01742814  0.61098682  0.17716007    -0.57500
H3225       H  0.00451218  0.65146706  0.15386550     0.18000
O3226       O  0.03653421  0.70752781  0.20931034    -0.64200
H3227       H  0.05032059  0.66688829  0.23252772     0.16500
C3228       C  0.07637080  0.61902988  0.21827887     0.28700
C3229       C  0.09005313  0.59795159  0.22457912    -0.25100
C3230       C  0.07811667  0.57559403  0.23137979    -0.24400
C3231       C  0.05186268  0.57493108  0.23278006     0.40200
C3232       C  0.03803493  0.59609648  0.22612410    -0.26900
O3233       O  0.08882258  0.63988458  0.21008710    -0.58800
H3234       H  0.11023986  0.59914370  0.22379187     0.15800
O3235       O  0.03955043  0.55344980  0.23929265    -0.60200
H3236       H  0.01783343  0.59513779  0.22623220     0.14300
H3237       H  0.02171578  0.71284398  0.21904795     0.46100
H3238       H  0.09491021  0.64824646  0.22539895     0.41500
H3239       H  0.03604111  0.55513237  0.25738142     0.45000
H3240       H  0.03195237  0.60673852  0.16647253     0.36400
C3241       C  0.99947294  0.63920312  0.05183695    -0.27800
C3242       C  0.98253199  0.62096102  0.06049756     0.01800
C3243       C  0.96656380  0.62756893  0.08053910     0.29900
C3244       C  0.96868469  0.65103040  0.09214422    -0.19600
C3245       C  0.98594765  0.66899434  0.08371565    -0.29000
C3246       C  0.00080991  0.66302428  0.06271486     0.43900
C3247       C  0.98241533  0.59514334  0.04906259     0.05100
O3248       O  0.94874519  0.61128369  0.08911641    -0.57500
H3249       H  0.95674306  0.65512579  0.10796322     0.18000
O3250       O  0.01776426  0.67980782  0.05335506    -0.64200
H3251       H  0.01243406  0.63485515  0.03693800     0.16500
C3252       C  0.98577226  0.59153862  0.02313215     0.28700
C3253       C  0.98865974  0.56746023  0.01330119    -0.25100
C3254       C  0.98661400  0.54608244  0.02837426    -0.24400
C3255       C  0.98124385  0.54939480  0.05391951     0.40200
C3256       C  0.97990140  0.57365013  0.06412154    -0.26900
O3257       O  0.98621222  0.61140283  0.00703098    -0.58800
H3258       H  0.99275572  0.56548674  0.99361725     0.15800
O3259       O  0.97688043  0.52907208  0.06890164    -0.60200
H3260       H  0.97737356  0.57547191  0.08405677     0.14300
H3261       H  0.00847900  0.68943113  0.04060134     0.46100
H3262       H  0.96845120  0.61474374  0.00310523     0.41500
H3263       H  0.98905547  0.53023276  0.08274413     0.45000
H3264       H  0.93477414  0.61260983  0.07712500     0.36400
C3265       C  0.87520057  0.77561949  0.16520018    -0.27800
C3266       C  0.87262183  0.76761566  0.19005624     0.01800
C3267       C  0.89461201  0.76095843  0.20306217     0.29900
C3268       C  0.91798565  0.76109774  0.19097915    -0.19600
C3269       C  0.92042172  0.76840226  0.16590696    -0.29000
C3270       C  0.89863456  0.77635784  0.15329177     0.43900
C3271       C  0.84707161  0.76503954  0.20180707     0.05100
O3272       O  0.89356408  0.75400592  0.22765015    -0.57500
H3273       H  0.93425590  0.75507539  0.20127069     0.18000
O3274       O  0.89978053  0.78438859  0.12902201    -0.64200
H3275       H  0.85886274  0.78049613  0.15446281     0.16500
C3276       C  0.82809432  0.78319576  0.19881705     0.28700
C3277       C  0.80443771  0.77985282  0.21006149    -0.25100
C3278       C  0.79922850  0.75871336  0.22468283    -0.24400
C3279       C  0.81807895  0.74072848  0.22774537     0.40200
C3280       C  0.84142725  0.74375766  0.21611941    -0.26900
O3281       O  0.83281785  0.80482774  0.18597121    -0.58800
H3282       H  0.79020430  0.79394814  0.20756892     0.15800
O3283       O  0.81409121  0.72060975  0.24311363    -0.60200
H3284       H  0.85518426  0.72917710  0.21835746     0.14300
H3285       H  0.89542415  0.76962094  0.11880655     0.46100
H3286       H  0.82247372  0.80383479  0.17068785     0.41500
H3287       H  0.81728034  0.70564222  0.23278190     0.45000
H3288       H  0.89322774  0.76984129  0.23714255     0.36400
C3289       C  0.11988199  0.76025335  0.18166275    -0.27800
C3290       C  0.12926473  0.73833073  0.19251804     0.01800
C3291       C  0.11389840  0.71686481  0.19289234     0.29900
C3292       C  0.09008718  0.71748022  0.18178945    -0.19600
C3293       C  0.08085069  0.73957068  0.17128517    -0.29000
C3294       C  0.09592104  0.76105326  0.17145492     0.43900
C3295       C  0.15469685  0.73895614  0.20397774     0.05100
O3296       O  0.12145901  0.69569381  0.20508270    -0.57500
H3297       H  0.07886814  0.70068114  0.18139410     0.18000
O3298       O  0.08794665  0.78263490  0.16032972    -0.64200
H3299       H  0.13132578  0.77691394  0.18089548     0.16500
C3300       C  0.17329268  0.72107276  0.19842609     0.28700
C3301       C  0.19737562  0.72344260  0.20865131    -0.25100
C3302       C  0.20334965  0.74358476  0.22424413    -0.24400
C3303       C  0.18484173  0.76141638  0.22964070     0.40200
C3304       C  0.16089425  0.75898457  0.21968478    -0.26900
O3305       O  0.16857871  0.70211980  0.18192431    -0.58800
H3306       H  0.21142830  0.70959353  0.20432631     0.15800
O3307       O  0.18996658  0.78129218  0.24489277    -0.60200
H3308       H  0.14701192  0.77292590  0.22430191     0.14300
H3309       H  0.07835014  0.79154513  0.17339724     0.46100
H3310       H  0.17017742  0.68648975  0.19168716     0.41500
H3311       H  0.18726895  0.77503504  0.26208997     0.45000
H3312       H  0.12235806  0.68249444  0.19216461     0.36400
C3313       C  0.12299413  0.77201460  0.07525613    -0.27800
C3314       C  0.12000646  0.78468903  0.05268901     0.01800
C3315       C  0.09615395  0.78654608  0.04184998     0.29900
C3316       C  0.07528807  0.77718729  0.05460432    -0.19600
C3317       C  0.07817090  0.76651019  0.07820299    -0.29000
C3318       C  0.10223353  0.76298873  0.08807335     0.43900
C3319       C  0.14110396  0.79935765  0.04306438     0.05100
O3320       O  0.09317892  0.79805501  0.01918214    -0.57500
H3321       H  0.05681688  0.77973166  0.04684863     0.18000
O3322       O  0.10550918  0.75192876  0.11089486    -0.64200
H3323       H  0.14126946  0.77058240  0.08373801     0.16500
C3324       C  0.13965421  0.82547059  0.04341185     0.28700
C3325       C  0.16014135  0.83958612  0.03602613    -0.25100
C3326       C  0.18232357  0.82810872  0.02804184    -0.24400
C3327       C  0.18408059  0.80192444  0.02837151     0.40200
C3328       C  0.16346414  0.78766872  0.03595869    -0.26900
O3329       O  0.11870565  0.83731242  0.05228180    -0.58800
H3330       H  0.15846067  0.85971206  0.03641478     0.15800
O3331       O  0.20580431  0.79015592  0.02169350    -0.60200
H3332       H  0.16490732  0.76752886  0.03642111     0.14300
H3333       H  0.10567091  0.73375755  0.10750544     0.46100
H3334       H  0.11144676  0.84607353  0.03773478     0.41500
H3335       H  0.21609297  0.79000137  0.03703497     0.45000
H3336       H  0.08290557  0.81306437  0.02249558     0.36400
C3337       C  0.35683442  0.79675232  0.98837025    -0.27800
C3338       C  0.36549000  0.79786178  0.96374278     0.01800
C3339       C  0.35112984  0.80967002  0.94535483     0.29900
C3340       C  0.32933679  0.82212751  0.95208772    -0.19600
C3341       C  0.32140828  0.82254651  0.97698390    -0.29000
C3342       C  0.33466082  0.80884877  0.99505698     0.43900
C3343       C  0.39039023  0.78864890  0.95718285     0.05100
O3344       O  0.35873389  0.80965237  0.92087779    -0.57500
H3345       H  0.31925756  0.83247051  0.93804350     0.18000
O3346       O  0.32749868  0.80923443  0.01963121    -0.64200
H3347       H  0.36783563  0.78753650  0.00254689     0.16500
C3348       C  0.40979635  0.80577558  0.95261471     0.28700
C3349       C  0.43121956  0.79801663  0.93995481    -0.25100
C3350       C  0.43341460  0.77333224  0.93197679    -0.24400
C3351       C  0.41509644  0.75570085  0.93868567     0.40200
C3352       C  0.39353094  0.76348767  0.95113478    -0.26900
O3353       O  0.40731324  0.83033935  0.95934064    -0.58800
H3354       H  0.44547327  0.81150191  0.93526452     0.15800
O3355       O  0.41686903  0.73145495  0.93076150    -0.60200
H3356       H  0.37854164  0.75029231  0.95444717     0.14300
H3357       H  0.31622704  0.79468466  0.02164947     0.46100
H3358       H  0.40334345  0.83936336  0.94371776     0.41500
H3359       H  0.42463728  0.72235215  0.94481491     0.45000
H3360       H  0.36611160  0.82636105  0.91794372     0.36400
C3361       C  0.32034000  0.94546384  0.14685922    -0.27800
C3362       C  0.30728819  0.96330507  0.13305922     0.01800
C3363       C  0.30369180  0.98729129  0.14299923     0.29900
C3364       C  0.31437679  0.99348798  0.16601117    -0.19600
C3365       C  0.32904464  0.97604617  0.17888306    -0.29000
C3366       C  0.33135819  0.95168571  0.16948456     0.43900
C3367       C  0.29820686  0.95614790  0.10817863     0.05100
O3368       O  0.29091755  0.00505977  0.12984219    -0.57500
H3369       H  0.31269041  0.01240748  0.17288328     0.18000
O3370       O  0.34550782  0.93423632  0.18163107    -0.64200
H3371       H  0.32265478  0.92672110  0.13966687     0.16500
C3372       C  0.31495911  0.94599020  0.09063251     0.28700
C3373       C  0.30580482  0.93313047  0.07000529    -0.25100
C3374       C  0.28008630  0.93092170  0.06619606    -0.24400
C3375       C  0.26336734  0.94307530  0.08244067     0.40200
C3376       C  0.27249761  0.95548001  0.10347814    -0.26900
O3377       O  0.34028546  0.94777461  0.09412284    -0.58800
H3378       H  0.31881821  0.92375995  0.05776365     0.15800
O3379       O  0.23807860  0.94049772  0.07949698    -0.60200
H3380       H  0.25945272  0.96300749  0.11699687     0.14300
H3381       H  0.33400057  0.92016719  0.18520382     0.46100
H3382       H  0.34589132  0.93074494  0.09861357     0.41500
H3383       H  0.23291334  0.95523082  0.06964214     0.45000
H3384       H  0.30381180  0.01394888  0.11990797     0.36400
C3385       C  0.18289285  0.93960026  0.84907642    -0.27800
C3386       C  0.19888399  0.95612887  0.86145070     0.01800
C3387       C  0.20429984  0.97939877  0.85044291     0.29900
C3388       C  0.19199505  0.98655861  0.82847268    -0.19600
C3389       C  0.17412413  0.97077477  0.81751912    -0.29000
C3390       C  0.17042075  0.94676236  0.82749435     0.43900
C3391       C  0.20860537  0.94870990  0.88621479     0.05100
O3392       O  0.22054199  0.99570054  0.86158930    -0.57500
H3393       H  0.19512934  0.00509146  0.82104190     0.18000
O3394       O  0.15349429  0.93064547  0.81709128    -0.64200
H3395       H  0.17932644  0.92121852  0.85669797     0.16500
C3396       C  0.19209161  0.93926424  0.90449583     0.28700
C3397       C  0.20148230  0.92747386  0.92565924    -0.25100
C3398       C  0.22721548  0.92561609  0.92941096    -0.24400
C3399       C  0.24375577  0.93697545  0.91236494     0.40200
C3400       C  0.23440337  0.94824955  0.89073849    -0.26900
O3401       O  0.16670608  0.94117236  0.90154541    -0.58800
H3402       H  0.18858130  0.91888285  0.93864871     0.15800
O3403       O  0.26907892  0.93491796  0.91537323    -0.60200
H3404       H  0.24735412  0.95527458  0.87684464     0.14300
H3405       H  0.16350922  0.91652881  0.81059515     0.46100
H3406       H  0.16058676  0.92388031  0.89908426     0.41500
H3407       H  0.27399239  0.94984571  0.92508715     0.45000
H3408       H  0.21038675  0.00488917  0.87403590     0.36400
C3409       C  0.24636854  0.80167317  0.88883112    -0.27800
C3410       C  0.26353274  0.80923956  0.87027007     0.01800
C3411       C  0.28141366  0.82752391  0.87670325     0.29900
C3412       C  0.28102091  0.83862368  0.90041393    -0.19600
C3413       C  0.26365279  0.83128702  0.91877686    -0.29000
C3414       C  0.24669479  0.81204568  0.91292572     0.43900
C3415       C  0.26221765  0.79836334  0.84436908     0.05100
O3416       O  0.29937152  0.83489941  0.85995825    -0.57500
H3417       H  0.29434414  0.85330325  0.90436340     0.18000
O3418       O  0.22919557  0.80435605  0.93000970    -0.64200
H3419       H  0.23203845  0.78811316  0.88451950     0.16500
C3420       C  0.25776727  0.77267985  0.84056146     0.28700
C3421       C  0.25495335  0.76315990  0.81640160    -0.25100
C3422       C  0.25767561  0.77839099  0.79522432    -0.24400
C3423       C  0.26342359  0.80380314  0.79875342     0.40200
C3424       C  0.26506375  0.81365626  0.82309405    -0.26900
O3425       O  0.25652709  0.75647391  0.86030766    -0.58800
H3426       H  0.25089737  0.74349391  0.81414374     0.15800
O3427       O  0.26835519  0.81886543  0.77862040    -0.60200
H3428       H  0.26839226  0.83344618  0.82521026     0.14300
H3429       H  0.23661208  0.78951747  0.93815053     0.46100
H3430       H  0.27407471  0.75166648  0.86362868     0.41500
H3431       H  0.25615595  0.83272798  0.77959386     0.45000
H3432       H  0.31320370  0.82283630  0.86203150     0.36400
C3433       C  0.24476808  0.77721210  0.15917107    -0.27800
C3434       C  0.23769309  0.80229042  0.15669806     0.01800
C3435       C  0.23095881  0.81559003  0.17847640     0.29900
C3436       C  0.23201693  0.80397733  0.20207375    -0.19600
C3437       C  0.24002889  0.77912286  0.20444188    -0.29000
C3438       C  0.24604693  0.76571974  0.18263813     0.43900
C3439       C  0.23869771  0.81443044  0.13147382     0.05100
O3440       O  0.22414510  0.84017367  0.17701999    -0.57500
H3441       H  0.22731315  0.81459296  0.21860883     0.18000
O3442       O  0.25465567  0.74169052  0.18428934    -0.64200
H3443       H  0.24975896  0.76649307  0.14278743     0.16500
C3444       C  0.26052663  0.81308756  0.11667041     0.28700
C3445       C  0.26135022  0.82433048  0.09301025    -0.25100
C3446       C  0.24074958  0.83737184  0.08358209    -0.24400
C3447       C  0.21879551  0.83853115  0.09812868     0.40200
C3448       C  0.21787131  0.82713192  0.12182853    -0.26900
O3449       O  0.28168750  0.80202798  0.12579667    -0.58800
H3450       H  0.27855393  0.82358946  0.08233626     0.15800
O3451       O  0.19812816  0.85066222  0.08928809    -0.60200
H3452       H  0.20077672  0.82810927  0.13263783     0.14300
H3453       H  0.24165407  0.73119469  0.17638666     0.46100
H3454       H  0.28346478  0.78623447  0.11635532     0.41500
H3455       H  0.18666296  0.83724889  0.08370352     0.45000
H3456       H  0.24001416  0.84966939  0.17794709     0.36400
C3457       C  0.42468236  0.95128234  0.03222489    -0.27800
C3458       C  0.40784175  0.95427775  0.01233808     0.01800
C3459       C  0.41539563  0.96841299  0.99145675     0.29900
C3460       C  0.43910856  0.97925671  0.99075391    -0.19600
C3461       C  0.45605547  0.97593002  0.01036939    -0.29000
C3462       C  0.44870283  0.96186335  0.03130502     0.43900
C3463       C  0.38292212  0.94181041  0.01289910     0.05100
O3464       O  0.40000582  0.97121488  0.97127272    -0.57500
H3465       H  0.44452370  0.99005966  0.97451775     0.18000
O3466       O  0.46514090  0.95763387  0.05040533    -0.64200
H3467       H  0.41925621  0.94060340  0.04851396     0.16500
C3468       C  0.38068975  0.91627454  0.01866433     0.28700
C3469       C  0.35740013  0.90451055  0.01757284    -0.25100
C3470       C  0.33585487  0.91756607  0.01025132    -0.24400
C3471       C  0.33797720  0.94321779  0.00484957     0.40200
C3472       C  0.36126407  0.95515076  0.00649791    -0.26900
O3473       O  0.40128284  0.90235865  0.02463711    -0.58800
H3474       H  0.35643355  0.88477581  0.02178400     0.15800
O3475       O  0.31744657  0.95690530  0.99823170    -0.60200
H3476       H  0.36243393  0.97491102  0.00247588     0.14300
H3477       H  0.45741413  0.96512648  0.06546004     0.46100
H3478       H  0.40797338  0.89631467  0.00847808     0.41500
H3479       H  0.31783852  0.95751034  0.97974732     0.45000
H3480       H  0.40411079  0.95709947  0.96005330     0.36400
C3481       C  0.04467217  0.89207506  0.73441995    -0.27800
C3482       C  0.04470879  0.88602939  0.70895027     0.01800
C3483       C  0.05473797  0.90305188  0.69164773     0.29900
C3484       C  0.06646796  0.92467920  0.69999478    -0.19600
C3485       C  0.06801035  0.93009477  0.72541462    -0.29000
C3486       C  0.05630625  0.91405329  0.74274325     0.43900
C3487       C  0.03682157  0.86110626  0.70022885     0.05100
O3488       O  0.05364339  0.89829462  0.66651521    -0.57500
H3489       H  0.07546928  0.93666967  0.68662143     0.18000
O3490       O  0.05774188  0.91870572  0.76784485    -0.64200
H3491       H  0.03693233  0.87911878  0.74789774     0.16500
C3492       C  0.05435990  0.84552561  0.68839383     0.28700
C3493       C  0.04632185  0.82479383  0.67498274    -0.25100
C3494       C  0.02099485  0.81852783  0.67406538    -0.24400
C3495       C  0.00361229  0.83273545  0.68784295     0.40200
C3496       C  0.01160053  0.85404563  0.70078602    -0.26900
O3497       O  0.07930776  0.85132130  0.68857846    -0.58800
H3498       H  0.05983186  0.81407104  0.66454340     0.15800
O3499       O  0.97865045  0.82702236  0.68729918    -0.60200
H3500       H  0.99796279  0.86581778  0.70996763     0.14300
H3501       H  0.07366085  0.91103118  0.77326364     0.46100
H3502       H  0.08573336  0.84419132  0.70435843     0.41500
H3503       H  0.97207675  0.83562196  0.67233744     0.45000
H3504       H  0.07093731  0.89403916  0.66142373     0.36400
C3505       C  0.97305929  0.65602237  0.71094527    -0.27800
C3506       C  0.97015829  0.63279536  0.69913360     0.01800
C3507       C  0.97433598  0.63081215  0.67335256     0.29900
C3508       C  0.97963384  0.65213140  0.65950006    -0.19600
C3509       C  0.98138676  0.67558427  0.67100032    -0.29000
C3510       C  0.97882174  0.67739784  0.69702574     0.43900
C3511       C  0.95689815  0.61252746  0.71211650     0.05100
O3512       O  0.97069887  0.60860684  0.66117332    -0.57500
H3513       H  0.98174704  0.65033797  0.63948082     0.18000
O3514       O  0.98045126  0.70003676  0.70878250    -0.64200
H3515       H  0.96941163  0.65777762  0.73075356     0.16500
C3516       C  0.96686332  0.58833653  0.71430663     0.28700
C3517       C  0.95155542  0.56873461  0.72266456    -0.25100
C3518       C  0.92626805  0.57306846  0.72804546    -0.24400
C3519       C  0.91678372  0.59750331  0.72675666     0.40200
C3520       C  0.93212988  0.61697554  0.71908261    -0.26900
O3521       O  0.99139160  0.58384309  0.70835961    -0.58800
H3522       H  0.95913986  0.55006809  0.72399823     0.15800
O3523       O  0.89254932  0.60262917  0.73332148    -0.60200
H3524       H  0.92425480  0.63550371  0.71737844     0.14300
H3525       H  0.96326143  0.70689007  0.70853136     0.46100
H3526       H  0.99102581  0.57314405  0.69328594     0.41500
H3527       H  0.88331636  0.60373146  0.71736878     0.45000
H3528       H  0.98760485  0.60298521  0.65608550     0.36400
C3529       C  0.10130662  0.73137866  0.53909256    -0.27800
C3530       C  0.10815564  0.70625671  0.54144464     0.01800
C3531       C  0.09274342  0.68990912  0.55512055     0.29900
C3532       C  0.07265973  0.69928599  0.56874180    -0.19600
C3533       C  0.06680011  0.72470908  0.56795692    -0.29000
C3534       C  0.08049300  0.74063007  0.55206643     0.43900
C3535       C  0.13334596  0.69797539  0.53388191     0.05100
O3536       O  0.09845059  0.66504401  0.55689569    -0.57500
H3537       H  0.06245683  0.68681326  0.58093507     0.18000
O3538       O  0.07550319  0.76568516  0.55137108    -0.64200
H3539       H  0.11309891  0.74415744  0.52872325     0.16500
C3540       C  0.14126748  0.69753804  0.50885459     0.28700
C3541       C  0.16429712  0.68662071  0.50266872    -0.25100
C3542       C  0.17938933  0.67604770  0.52129180    -0.24400
C3543       C  0.17198332  0.67798924  0.54638714     0.40200
C3544       C  0.14934764  0.68919379  0.55251569    -0.26900
O3545       O  0.12587811  0.70588042  0.49027652    -0.58800
H3546       H  0.16950494  0.68483321  0.48320739     0.15800
O3547       O  0.18647109  0.66840699  0.56506540    -0.60200
H3548       H  0.14371521  0.69003753  0.57193460     0.14300
H3549       H  0.06516532  0.76810277  0.53627989     0.46100
H3550       H  0.13159439  0.72309498  0.48663853     0.41500
H3551       H  0.17876237  0.65216897  0.56946106     0.45000
H3552       H  0.08750977  0.65666495  0.54458032     0.36400
C3553       C  0.84024718  0.78215732  0.52773449    -0.27800
C3554       C  0.86401859  0.79317946  0.52945264     0.01800
C3555       C  0.86706541  0.81847367  0.52325717     0.29900
C3556       C  0.84633918  0.83275449  0.51713702    -0.19600
C3557       C  0.82236466  0.82220522  0.51692168    -0.29000
C3558       C  0.81942159  0.79652879  0.52128961     0.43900
C3559       C  0.88447289  0.78013990  0.54228811     0.05100
O3560       O  0.89000625  0.82981152  0.52465918    -0.57500
H3561       H  0.84897108  0.85241062  0.51321525     0.18000
O3562       O  0.79616979  0.78580799  0.52126616    -0.64200
H3563       H  0.83768783  0.76271709  0.53261963     0.16500
C3564       C  0.88139417  0.77357767  0.56749148     0.28700
C3565       C  0.90213053  0.76732484  0.58169755    -0.25100
C3566       C  0.92610275  0.76712960  0.57109438    -0.24400
C3567       C  0.92905926  0.77181001  0.54545606     0.40200
C3568       C  0.90825516  0.77853534  0.53120794    -0.26900
O3569       O  0.85856016  0.77556510  0.57900677    -0.58800
H3570       H  0.89950157  0.76319885  0.60132851     0.15800
O3571       O  0.95230475  0.77178571  0.53466790    -0.60200
H3572       H  0.91083653  0.78372885  0.51184106     0.14300
H3573       H  0.79440370  0.77828448  0.50448421     0.46100
H3574       H  0.85184807  0.75833215  0.57957774     0.41500
H3575       H  0.95416235  0.75496912  0.52724306     0.45000
H3576       H  0.89142662  0.83569769  0.54212665     0.36400
C3577       C  0.12401827  0.78104782  0.66660888    -0.27800
C3578       C  0.12980267  0.76404266  0.68575759     0.01800
C3579       C  0.11089982  0.74704974  0.69325103     0.29900
C3580       C  0.08722482  0.74741960  0.68200991    -0.19600
C3581       C  0.08180544  0.76377572  0.66229768    -0.29000
C3582       C  0.10068904  0.78059852  0.65455726     0.43900
C3583       C  0.15536708  0.76387799  0.69767137     0.05100
O3584       O  0.11551896  0.72924023  0.71098636    -0.57500
H3585       H  0.07339425  0.73392212  0.68803299     0.18000
O3586       O  0.09651131  0.79697487  0.63537726    -0.64200
H3587       H  0.13768179  0.79475953  0.66074672     0.16500
C3588       C  0.17771470  0.76619719  0.68356152     0.28700
C3589       C  0.20122130  0.76508986  0.69531824    -0.25100
C3590       C  0.20321186  0.76030990  0.72101964    -0.24400
C3591       C  0.18095700  0.75792455  0.73500845     0.40200
C3592       C  0.15759123  0.76053118  0.72359704    -0.26900
O3593       O  0.17692757  0.76880893  0.65814703    -0.58800
H3594       H  0.21796472  0.76722882  0.68413963     0.15800
O3595       O  0.18177690  0.75242738  0.75995558    -0.60200
H3596       H  0.14105442  0.75941043  0.73520872     0.14300
H3597       H  0.10399276  0.78900095  0.62043652     0.46100
H3598       H  0.17953398  0.75178484  0.65143205     0.41500
H3599       H  0.18342799  0.73403715  0.76082390     0.45000
H3600       H  0.12418121  0.71559674  0.70199294     0.36400
C3601       C  0.99277894  0.58736115  0.53067490    -0.27800
C3602       C  0.01354539  0.59369444  0.54529125     0.01800
C3603       C  0.03159926  0.57503846  0.55011045     0.29900
C3604       C  0.02834289  0.55071403  0.54093366    -0.19600
C3605       C  0.00770432  0.54471075  0.52605219    -0.29000
C3606       C  0.98998315  0.56332198  0.52083908     0.43900
C3607       C  0.01526816  0.61922803  0.55654276     0.05100
O3608       O  0.05272335  0.58042651  0.56343104    -0.57500
H3609       H  0.04231568  0.53667736  0.54482435     0.18000
O3610       O  0.97040755  0.55836357  0.50515295    -0.64200
H3611       H  0.97836941  0.60098568  0.52703139     0.16500
C3612       C  0.00955535  0.64108018  0.54290330     0.28700
C3613       C  0.00894261  0.66445513  0.55488485    -0.25100
C3614       C  0.01435665  0.66667251  0.58040042    -0.24400
C3615       C  0.02146600  0.64493423  0.59357713     0.40200
C3616       C  0.02130143  0.62166133  0.58184460    -0.26900
O3617       O  0.00518168  0.63986580  0.51773324    -0.58800
H3618       H  0.00402250  0.68084378  0.54417838     0.15800
O3619       O  0.02763266  0.64586962  0.61835128    -0.60200
H3620       H  0.02529074  0.60529260  0.59295398     0.14300
H3621       H  0.95512144  0.56054647  0.51537183     0.46100
H3622       H  0.98735477  0.64435813  0.51560507     0.41500
H3623       H  0.04604008  0.64786737  0.61861313     0.45000
H3624       H  0.06468974  0.58731587  0.55105282     0.36400
C3625       C  0.84024334  0.73946589  0.72418390    -0.27800
C3626       C  0.84248835  0.73468796  0.69845675     0.01800
C3627       C  0.82026713  0.73089230  0.68471805     0.29900
C3628       C  0.79678223  0.73234159  0.69656208    -0.19600
C3629       C  0.79472390  0.73847788  0.72198441    -0.29000
C3630       C  0.81682474  0.74194294  0.73571324     0.43900
C3631       C  0.86795379  0.73452318  0.68631157     0.05100
O3632       O  0.82114390  0.72652104  0.65954302    -0.57500
H3633       H  0.78010500  0.72927029  0.68566140     0.18000
O3634       O  0.81575338  0.74830213  0.76046370    -0.64200
H3635       H  0.85678670  0.74171344  0.73548147     0.16500
C3636       C  0.88589373  0.75308105  0.69187070     0.28700
C3637       C  0.90963970  0.75264959  0.68056916    -0.25100
C3638       C  0.91610153  0.73432229  0.66300067    -0.24400
C3639       C  0.89813862  0.71592364  0.65714572     0.40200
C3640       C  0.87462324  0.71585056  0.66905794    -0.26900
O3641       O  0.87984875  0.77273980  0.70709991    -0.58800
H3642       H  0.92269872  0.76747812  0.68482592     0.15800
O3643       O  0.90347131  0.69765183  0.64006217    -0.60200
H3644       H  0.86154963  0.70108260  0.66469389     0.14300
H3645       H  0.81332322  0.76663246  0.76065938     0.46100
H3646       H  0.89014297  0.77059397  0.72228003     0.41500
H3647       H  0.89588869  0.70344621  0.62424445     0.45000
H3648       H  0.82121240  0.74326558  0.65171659     0.36400
C3649       C  0.85675926  0.95217083  0.48650746    -0.27800
C3650       C  0.87854519  0.93849133  0.48103708     0.01800
C3651       C  0.87620755  0.91272887  0.47631728     0.29900
C3652       C  0.85266838  0.90122051  0.47733379    -0.19600
C3653       C  0.83100439  0.91469759  0.48365058    -0.29000
C3654       C  0.83329053  0.94049679  0.48816026     0.43900
C3655       C  0.90358846  0.95087935  0.48266491     0.05100
O3656       O  0.89701127  0.89820522  0.47285780    -0.57500
H3657       H  0.85164747  0.88128714  0.47425493     0.18000
O3658       O  0.81278612  0.95452722  0.49427311    -0.64200
H3659       H  0.85800901  0.97200290  0.49012320     0.16500
C3660       C  0.92239172  0.94769029  0.46430829     0.28700
C3661       C  0.94615516  0.95837866  0.46758174    -0.25100
C3662       C  0.95125563  0.97323082  0.48848959    -0.24400
C3663       C  0.93211900  0.97756905  0.50600945     0.40200
C3664       C  0.90882511  0.96611129  0.50331627    -0.26900
O3665       O  0.91765841  0.93460422  0.44289223    -0.58800
H3666       H  0.96050741  0.95532791  0.45363983     0.15800
O3667       O  0.93606205  0.99302439  0.52599112    -0.60200
H3668       H  0.89478737  0.96908647  0.51759611     0.14300
H3669       H  0.81298539  0.95571677  0.51273137     0.46100
H3670       H  0.91094564  0.94706600  0.43101981     0.41500
H3671       H  0.93357302  0.01015241  0.51951349     0.45000
H3672       H  0.89569097  0.89154082  0.45565481     0.36400
C3673       C  0.08634498  0.03092785  0.49378186    -0.27800
C3674       C  0.09124332  0.04833423  0.51269985     0.01800
C3675       C  0.07183328  0.05431361  0.52966584     0.29900
C3676       C  0.04814008  0.04316610  0.52731123    -0.19600
C3677       C  0.04355338  0.02573022  0.50839035    -0.29000
C3678       C  0.06301512  0.01939297  0.49183627     0.43900
C3679       C  0.11632429  0.06066019  0.51367726     0.05100
O3680       O  0.07583431  0.07094373  0.54864384    -0.57500
H3681       H  0.03337519  0.04805709  0.54026690     0.18000
O3682       O  0.05918309  0.00227690  0.47321393    -0.64200
H3683       H  0.10059137  0.02643907  0.48013921     0.16500
C3684       C  0.13865145  0.04675388  0.51178662     0.28700
C3685       C  0.16191119  0.05893946  0.51050584    -0.25100
C3686       C  0.16351677  0.08506134  0.51120488    -0.24400
C3687       C  0.14114763  0.09891490  0.51366476     0.40200
C3688       C  0.11798841  0.08674431  0.51482377    -0.26900
O3689       O  0.13794400  0.02117753  0.51190664    -0.58800
H3690       H  0.17875006  0.04787498  0.50901986     0.15800
O3691       O  0.14151934  0.12448651  0.51431373    -0.60200
H3692       H  0.10115895  0.09787852  0.51581215     0.14300
H3693       H  0.06226524  0.98568969  0.48095480     0.46100
H3694       H  0.14298504  0.01602060  0.49487036     0.41500
H3695       H  0.14065872  0.12981982  0.49664584     0.45000
H3696       H  0.08076094  0.06060634  0.56314368     0.36400
C3697       C  0.05772540  0.98218007  0.57348594    -0.27800
C3698       C  0.04252386  0.98661084  0.59456904     0.01800
C3699       C  0.01696137  0.99159182  0.59061405     0.29900
C3700       C  0.00753396  0.99347151  0.56631751    -0.19600
C3701       C  0.02272834  0.98912102  0.54535463    -0.29000
C3702       C  0.04789838  0.98268912  0.54921997     0.43900
C3703       C  0.05360340  0.98679164  0.62032486     0.05100
O3704       O  0.00092150  0.99469097  0.61035311    -0.57500
H3705       H  0.98814623  0.99855603  0.56381453     0.18000
O3706       O  0.06321324  0.97722304  0.52947190    -0.64200
H3707       H  0.07747623  0.97867356  0.57568863     0.16500
C3708       C  0.07118127  0.96872293  0.62779840     0.28700
C3709       C  0.08288965  0.97058281  0.65110936    -0.25100
C3710       C  0.07652591  0.98941084  0.66825670    -0.24400
C3711       C  0.05834866  0.00701022  0.66120266     0.40200
C3712       C  0.04744553  0.00586957  0.63737577    -0.26900
O3713       O  0.07648890  0.94868370  0.61277832    -0.58800
H3714       H  0.09716140  0.95708877  0.65574029     0.15800
O3715       O  0.05245543  0.02651963  0.67664077    -0.60200
H3716       H  0.03459632  0.02045934  0.63200829     0.14300
H3717       H  0.06102365  0.95910019  0.52658464     0.46100
H3718       H  0.09417971  0.95077420  0.60765289     0.41500
H3719       H  0.03707807  0.02121763  0.68553042     0.45000
H3720       H  0.99488139  0.97767466  0.61444230     0.36400
C3721       C  0.99337332  0.08995301  0.46953165    -0.27800
C3722       C  0.01191796  0.09466015  0.45143885     0.01800
C3723       C  0.02855583  0.07511204  0.44524888     0.29900
C3724       C  0.02531991  0.05123780  0.45568020    -0.19600
C3725       C  0.00671581  0.04667316  0.47356707    -0.29000
C3726       C  0.99109570  0.06647764  0.48087778     0.43900
C3727       C  0.01319304  0.11976343  0.43896228     0.05100
O3728       O  0.04886615  0.07954887  0.43016275    -0.57500
H3729       H  0.03751759  0.03634868  0.44976061     0.18000
O3730       O  0.97324019  0.06296374  0.49894581    -0.64200
H3731       H  0.98038285  0.10449057  0.47481288     0.16500
C3732       C  0.01615818  0.12201741  0.41286253     0.28700
C3733       C  0.01659492  0.14553898  0.40153055    -0.25100
C3734       C  0.01271511  0.16747041  0.41536459    -0.24400
C3735       C  0.00907597  0.16534995  0.44136214     0.40200
C3736       C  0.00979718  0.14178389  0.45294789    -0.26900
O3737       O  0.01733155  0.10134245  0.39788418    -0.58800
H3738       H  0.01870932  0.14642641  0.38144733     0.15800
O3739       O  0.00491997  0.18611731  0.45568688    -0.60200
H3740       H  0.00734876  0.14073820  0.47297767     0.14300
H3741       H  0.98221576  0.06463908  0.51500559     0.46100
H3742       H  0.99974725  0.09621941  0.39530073     0.48700
H3743       H  0.98651038  0.18718977  0.45749227     0.45000
H3744       H  0.04753957  0.06760424  0.41611473     0.36400
C3745       C  0.98620834  0.87690459  0.58156294    -0.27800
C3746       C  0.98231324  0.87828231  0.55572299     0.01800
C3747       C  0.97944613  0.85572740  0.54231390     0.29900
C3748       C  0.98084493  0.83258261  0.55473331    -0.19600
C3749       C  0.98444883  0.83143165  0.58066630    -0.29000
C3750       C  0.98715032  0.85397836  0.59397312     0.43900
C3751       C  0.98255109  0.90336760  0.54329551     0.05100
O3752       O  0.97517738  0.85603800  0.51712277    -0.57500
H3753       H  0.97885976  0.81553321  0.54411404     0.18000
O3754       O  0.99161096  0.85388029  0.61914919    -0.64200
H3755       H  0.98924874  0.89376188  0.59224945     0.16500
C3756       C  0.96954819  0.92384395  0.55370873     0.28700
C3757       C  0.97255173  0.94788935  0.54379124    -0.25100
C3758       C  0.98797279  0.95209476  0.52302721    -0.24400
C3759       C  0.00001812  0.93158328  0.51184363     0.40200
C3760       C  0.99743649  0.90756442  0.52202680    -0.26900
O3761       O  0.95387688  0.92060481  0.57373109    -0.58800
H3762       H  0.96276512  0.96325203  0.55242991     0.15800
O3763       O  0.01435039  0.93486218  0.49084197    -0.60200
H3764       H  0.00775623  0.89234008  0.51368028     0.14300
H3765       H  0.01005001  0.85347393  0.62076471     0.46100
H3766       H  0.93749929  0.91610169  0.56643108     0.41500
H3767       H  0.03158085  0.93745427  0.49699709     0.45000
H3768       H  0.95680372  0.85732622  0.51541329     0.36400
C3769       C  0.93335622  0.10013968  0.30874549    -0.27800
C3770       C  0.94986073  0.11189497  0.29218868     0.01800
C3771       C  0.95531543  0.10061304  0.26913300     0.29900
C3772       C  0.94269696  0.07876170  0.26218978    -0.19600
C3773       C  0.92429040  0.06843552  0.27789131    -0.29000
C3774       C  0.92035248  0.07879480  0.30171876     0.43900
C3775       C  0.95943946  0.13676797  0.29901132     0.05100
O3776       O  0.97173970  0.11153110  0.25274920    -0.57500
H3777       H  0.94592470  0.07104008  0.24379499     0.18000
O3778       O  0.90242587  0.06929692  0.31748004    -0.64200
H3779       H  0.92954033  0.10831946  0.32683861     0.16500
C3780       C  0.94250504  0.15558282  0.30608234     0.28700
C3781       C  0.95117853  0.17702480  0.31788502    -0.25100
C3782       C  0.97667555  0.18043464  0.32202567    -0.24400
C3783       C  0.99386083  0.16269881  0.31307300     0.40200
C3784       C  0.98515241  0.14082606  0.30174082    -0.26900
O3785       O  0.91734629  0.15272311  0.30213464    -0.58800
H3786       H  0.93781886  0.19041474  0.32488031     0.15800
O3787       O  0.01888536  0.16533499  0.31770995    -0.60200
H3788       H  0.99832741  0.12640736  0.29655814     0.14300
H3789       H  0.91109102  0.06531953  0.33329556     0.46100
H3790       H  0.90982906  0.15014096  0.31887839     0.41500
H3791       H  0.02605910  0.17228141  0.30211706     0.45000
H3792       H  0.96160236  0.12347070  0.24297447     0.36400
C3793       C  0.76488371  0.04619333  0.10606645    -0.27800
C3794       C  0.79035738  0.04571421  0.11186004     0.01800
C3795       C  0.80803852  0.05429427  0.09441358     0.29900
C3796       C  0.79994458  0.06622555  0.07290325    -0.19600
C3797       C  0.77452695  0.06918730  0.06835020    -0.29000
C3798       C  0.75686401  0.05784776  0.08419878     0.43900
C3799       C  0.79845016  0.03930408  0.13711385     0.05100
O3800       O  0.83317234  0.05169064  0.09876812    -0.57500
H3801       H  0.81350134  0.07430253  0.06046458     0.18000
O3802       O  0.73179061  0.05974172  0.07946044    -0.64200
H3803       H  0.75121567  0.03915760  0.11926018     0.16500
C3804       C  0.81113905  0.05720681  0.15145917     0.28700
C3805       C  0.82252820  0.05008593  0.17360164    -0.25100
C3806       C  0.82104675  0.02540520  0.18183108    -0.24400
C3807       C  0.80631277  0.00805157  0.16872063     0.40200
C3808       C  0.79516797  0.01508075  0.14627994    -0.26900
O3809       O  0.81270855  0.08157148  0.14365469    -0.58800
H3810       H  0.83359513  0.06357050  0.18369969     0.15800
O3811       O  0.80486393  0.98365282  0.17624736    -0.60200
H3812       H  0.78518869  0.00132169  0.13537498     0.14300
H3813       H  0.72634127  0.07521376  0.08796919     0.46100
H3814       H  0.83072448  0.08493665  0.14088545     0.41500
H3815       H  0.79015974  0.98290536  0.18751608     0.45000
H3816       H  0.84012987  0.06883424  0.09931052     0.36400
C3817       C  0.76652570  0.95733922  0.40031096    -0.27800
C3818       C  0.78852647  0.95038377  0.38793573     0.01800
C3819       C  0.80389644  0.93185992  0.39811545     0.29900
C3820       C  0.79642538  0.91932823  0.41961218    -0.19600
C3821       C  0.77350961  0.92482338  0.43109698    -0.29000
C3822       C  0.75895201  0.94468828  0.42194269     0.43900
C3823       C  0.79549160  0.96172724  0.36398542     0.05100
O3824       O  0.82614134  0.92573764  0.38690878    -0.57500
H3825       H  0.80812379  0.90447453  0.42669686     0.18000
O3826       O  0.73645613  0.95053757  0.43270985    -0.64200
H3827       H  0.75479517  0.97186140  0.39265138     0.16500
C3828       C  0.79422490  0.94760181  0.34190155     0.28700
C3829       C  0.80615459  0.95618945  0.32030732    -0.25100
C3830       C  0.81949998  0.97858229  0.32073090    -0.24400
C3831       C  0.81911677  0.99359552  0.34224614     0.40200
C3832       C  0.80715444  0.98507596  0.36380830    -0.26900
O3833       O  0.78216229  0.92500433  0.34164684    -0.58800
H3834       H  0.80602094  0.94480311  0.30367663     0.15800
O3835       O  0.83203147  0.01567902  0.34294746    -0.60200
H3836       H  0.80833862  0.99593225  0.38080176     0.14300
H3837       H  0.74041412  0.96324247  0.44553122     0.46100
H3838       H  0.79553674  0.91227747  0.34062942     0.41500
H3839       H  0.82023257  0.02836206  0.33659163     0.45000
H3840       H  0.82306055  0.90965339  0.37833354     0.36400
C3841       C  0.96391805  0.85033109  0.20229668    -0.27800
C3842       C  0.96550559  0.87321431  0.18958719     0.01800
C3843       C  0.97686796  0.87414829  0.16593662     0.29900
C3844       C  0.98485205  0.85212781  0.15457544    -0.19600
C3845       C  0.98192995  0.82906272  0.16662358    -0.29000
C3846       C  0.97226851  0.82828641  0.19100486     0.43900
C3847       C  0.95254832  0.89528086  0.19976676     0.05100
O3848       O  0.98016118  0.89653314  0.15389626    -0.57500
H3849       H  0.99296108  0.85302212  0.13603724     0.18000
O3850       O  0.96912092  0.80597882  0.20311241    -0.64200
H3851       H  0.95508645  0.84940471  0.22048562     0.16500
C3852       C  0.93262304  0.90594722  0.18650523     0.28700
C3853       C  0.91865671  0.92503633  0.19720543    -0.25100
C3854       C  0.92386997  0.93361606  0.22135311    -0.24400
C3855       C  0.94442416  0.92368334  0.23429699     0.40200
C3856       C  0.95850724  0.90444752  0.22352532    -0.26900
O3857       O  0.92577070  0.89692548  0.16359075    -0.58800
H3858       H  0.90298585  0.93247494  0.18688767     0.15800
O3859       O  0.94973863  0.93123751  0.25811099    -0.60200
H3860       H  0.97367301  0.89620787  0.23396924     0.14300
H3861       H  0.98478941  0.80341550  0.21253809     0.46100
H3862       H  0.91358305  0.88343317  0.16713923     0.41500
H3863       H  0.96191801  0.94503985  0.25614534     0.45000
H3864       H  0.96938128  0.89581350  0.13892149     0.36400
C3865       C  0.82149819  0.87897249  0.28449555    -0.27800
C3866       C  0.80694475  0.87038860  0.26449941     0.01800
C3867       C  0.80284618  0.88659760  0.24412657     0.29900
C3868       C  0.81352771  0.91051368  0.24380583    -0.19600
C3869       C  0.82909444  0.91854354  0.26321456    -0.29000
C3870       C  0.83286162  0.90257445  0.28376515     0.43900
C3871       C  0.79666454  0.84442142  0.26459889     0.05100
O3872       O  0.78922596  0.87893312  0.22391626    -0.57500
H3873       H  0.81069882  0.92230943  0.22765829     0.18000
O3874       O  0.84731014  0.91005650  0.30345973    -0.64200
H3875       H  0.82439067  0.86720018  0.30063303     0.16500
C3876       C  0.81200631  0.82352473  0.26933059     0.28700
C3877       C  0.80225030  0.79923625  0.26747276    -0.25100
C3878       C  0.77720611  0.79530526  0.26098106    -0.24400
C3879       C  0.76180847  0.81617120  0.25671407     0.40200
C3880       C  0.77143631  0.84035252  0.25881508    -0.26900
O3881       O  0.83689727  0.82659324  0.27438287    -0.58800
H3882       H  0.81439200  0.78343180  0.27063914     0.15800
O3883       O  0.73730945  0.81309848  0.24999413    -0.60200
H3884       H  0.75917469  0.85603578  0.25549125     0.14300
H3885       H  0.86378108  0.90210433  0.30069233     0.46100
H3886       H  0.83863482  0.82290162  0.29241985     0.41500
H3887       H  0.73770231  0.80977473  0.23180853     0.45000
H3888       H  0.80091097  0.86883624  0.21370604     0.36400
C3889       C  0.80141940  0.11328058  0.25569997    -0.27800
C3890       C  0.80851572  0.13102309  0.23762942     0.01800
C3891       C  0.82717329  0.12435173  0.22016180     0.29900
C3892       C  0.83866655  0.10091208  0.22141195    -0.19600
C3893       C  0.83129765  0.08312429  0.23924250    -0.29000
C3894       C  0.81234332  0.08952505  0.25640411     0.43900
C3895       C  0.79674855  0.15640444  0.23752137     0.05100
O3896       O  0.83436700  0.14052153  0.20165808    -0.57500
H3897       H  0.85340518  0.09660313  0.20822015     0.18000
O3898       O  0.80494084  0.07308327  0.27459331    -0.64200
H3899       H  0.78772017  0.11798760  0.26982240     0.16500
C3900       C  0.77080086  0.15951188  0.24119997     0.28700
C3901       C  0.76048150  0.18344891  0.24259596    -0.25100
C3902       C  0.77531772  0.20482592  0.23936723    -0.24400
C3903       C  0.80087143  0.20181012  0.23398192     0.40200
C3904       C  0.81151407  0.17790295  0.23397172    -0.26900
O3905       O  0.75524381  0.13930247  0.24346167    -0.58800
H3906       H  0.74069584  0.18535501  0.24642231     0.15800
O3907       O  0.81567275  0.22209138  0.22901995    -0.60200
H3908       H  0.83149048  0.17630604  0.23136426     0.14300
H3909       H  0.81631859  0.07617334  0.28880926     0.46100
H3910       H  0.75066604  0.13481229  0.22614034     0.41500
H3911       H  0.81851552  0.22178761  0.21074577     0.45000
H3912       H  0.82160889  0.13869270  0.18845115     0.36400
C3913       C  0.93674240  0.02497861  0.42687563    -0.27800
C3914       C  0.94804525  0.01417437  0.40570032     0.01800
C3915       C  0.97125833  0.00213464  0.40856387     0.29900
C3916       C  0.98254897  0.00085547  0.43201600    -0.19600
C3917       C  0.97083253  0.01080542  0.45319404    -0.29000
C3918       C  0.94780619  0.02304944  0.45054588     0.43900
C3919       C  0.93512632  0.01432271  0.38101332     0.05100
O3920       O  0.98268975  0.99069046  0.38872353    -0.57500
H3921       H  0.00019686  0.99119429  0.43388224     0.18000
O3922       O  0.93606584  0.03317115  0.47091552    -0.64200
H3923       H  0.91909861  0.03464313  0.42514190     0.16500
C3924       C  0.91001079  0.00669777  0.37891699     0.28700
C3925       C  0.89859500  0.00566190  0.35549589    -0.25100
C3926       C  0.91191970  0.01141335  0.33361408    -0.24400
C3927       C  0.93697410  0.01901065  0.33554253     0.40200
C3928       C  0.94824739  0.02083672  0.35910237    -0.26900
O3929       O  0.89658849  0.99955871  0.39956519    -0.58800
H3930       H  0.87934418  0.99956167  0.35438594     0.15800
O3931       O  0.95022004  0.02580983  0.31469484    -0.60200
H3932       H  0.96739640  0.02722883  0.36023570     0.14300
H3933       H  0.92165621  0.02205626  0.47436713     0.46100
H3934       H  0.89800514  0.98113559  0.40015860     0.41500
H3935       H  0.95868989  0.01038794  0.30907133     0.45000
H3936       H  0.97564023  0.97358901  0.38834017     0.36400
C3937       C  0.09747184  0.28240953  0.95704671    -0.27800
C3938       C  0.12026688  0.28052529  0.94415021     0.01800
C3939       C  0.12100626  0.26946927  0.92045051     0.29900
C3940       C  0.09884758  0.26238762  0.90899325    -0.19600
C3941       C  0.07584958  0.26596156  0.92103721    -0.29000
C3942       C  0.07521526  0.27486794  0.94564577     0.43900
C3943       C  0.14227820  0.29400458  0.95329981     0.05100
O3944       O  0.14331144  0.26627696  0.90815368    -0.57500
H3945       H  0.09957633  0.25477453  0.89027439     0.18000
O3946       O  0.05291393  0.27823528  0.95778148    -0.64200
H3947       H  0.09678891  0.29107168  0.97528424     0.16500
C3948       C  0.15090855  0.31491784  0.94001212     0.28700
C3949       C  0.17107681  0.32850414  0.94888992    -0.25100
C3950       C  0.18259299  0.32204440  0.97142501    -0.24400
C3951       C  0.17440701  0.30066693  0.98446698     0.40200
C3952       C  0.15414582  0.28685243  0.97540603    -0.26900
O3953       O  0.13912174  0.32277383  0.91874117    -0.58800
H3954       H  0.17709744  0.34481264  0.93853129     0.15800
O3955       O  0.18489958  0.29408360  0.00678825    -0.60200
H3956       H  0.14744149  0.27083447  0.98578264     0.14300
H3957       H  0.05060813  0.26303868  0.96806922     0.46100
H3958       H  0.12509366  0.33335024  0.92460097     0.41500
H3959       H  0.19824488  0.28204937  0.00243244     0.45000
H3960       H  0.14326988  0.27854975  0.89431617     0.36400
C3961       C  0.02587161  0.15246202  0.79212973    -0.27800
C3962       C  0.02580256  0.12932881  0.80438917     0.01800
C3963       C  0.01685695  0.12760544  0.82894884     0.29900
C3964       C  0.01025016  0.14919670  0.84176581    -0.19600
C3965       C  0.01202464  0.17262272  0.83018559    -0.29000
C3966       C  0.01864618  0.17412484  0.80484615     0.43900
C3967       C  0.04108576  0.10890438  0.79451696     0.05100
O3968       O  0.01696304  0.10522409  0.84134293    -0.57500
H3969       H  0.00471111  0.14774773  0.86118320     0.18000
O3970       O  0.02058295  0.19679924  0.79318860    -0.64200
H3971       H  0.03322778  0.15394538  0.77333776     0.16500
C3972       C  0.03126557  0.08980273  0.77959722     0.28700
C3973       C  0.04680327  0.07027549  0.77172176    -0.25100
C3974       C  0.07206631  0.06950935  0.77891307    -0.24400
C3975       C  0.08152144  0.08876626  0.79426441     0.40200
C3976       C  0.06602874  0.10810517  0.80186956    -0.26900
O3977       O  0.00672200  0.09020298  0.77247014    -0.58800
H3978       H  0.03910689  0.05583730  0.75990018     0.15800
O3979       O  0.10585990  0.08897108  0.80214372    -0.60200
H3980       H  0.07353823  0.12263540  0.81374231     0.14300
H3981       H  0.00411147  0.19950301  0.78527473     0.46100
H3982       H  0.99757363  0.08126104  0.78587775     0.41500
H3983       H  0.11476676  0.10027578  0.79048380     0.45000
H3984       H  0.00103651  0.09702183  0.83673059     0.36400
C3985       C  0.96764680  0.34415314  0.79091640    -0.27800
C3986       C  0.96830078  0.36745488  0.80284596     0.01800
C3987       C  0.97697350  0.36924183  0.82740504     0.29900
C3988       C  0.98313212  0.34768247  0.84040216    -0.19600
C3989       C  0.98120895  0.32417124  0.82907066    -0.29000
C3990       C  0.97446959  0.32248798  0.80382347     0.43900
C3991       C  0.95376144  0.38820395  0.79269280     0.05100
O3992       O  0.97699978  0.39170610  0.83963493    -0.57500
H3993       H  0.98862248  0.34930575  0.85975420     0.18000
O3994       O  0.97223333  0.29972924  0.79241110    -0.64200
H3995       H  0.96033743  0.34262147  0.77217043     0.16500
C3996       C  0.96479637  0.40868090  0.78057570     0.28700
C3997       C  0.94988829  0.42887203  0.77321902    -0.25100
C3998       C  0.92410019  0.42898267  0.77842213    -0.24400
C3999       C  0.91339903  0.40829442  0.79097333     0.40200
C4000       C  0.92821753  0.38818538  0.79771836    -0.26900
O4001       O  0.98992669  0.40896651  0.77564370    -0.58800
H4002       H  0.95849573  0.44443742  0.76358250     0.15800
O4003       O  0.88826206  0.40695745  0.79593340    -0.60200
H4004       H  0.91972685  0.37252568  0.80736312     0.14300
H4005       H  0.98807635  0.29744270  0.78307153     0.46100
H4006       H  0.99766180  0.41667389  0.79053812     0.41500
H4007       H  0.88660159  0.40889970  0.81424888     0.45000
H4008       H  0.99448849  0.39771486  0.83864988     0.36400
C4009       C  0.88103350  0.22683649  0.93575896    -0.27800
C4010       C  0.88530822  0.22040436  0.96063745     0.01800
C4011       C  0.90956163  0.22244323  0.97051886     0.29900
C4012       C  0.92947881  0.22937261  0.95494626    -0.19600
C4013       C  0.92535205  0.23385856  0.92951241    -0.29000
C4014       C  0.90076883  0.23351750  0.92022510     0.43900
C4015       C  0.86549508  0.20651025  0.97366859     0.05100
O4016       O  0.91415665  0.21623893  0.99487854    -0.57500
H4017       H  0.94824455  0.22992048  0.96238694     0.18000
O4018       O  0.89590425  0.23873100  0.89567466    -0.64200
H4019       H  0.86253628  0.22499792  0.92784360     0.16500
C4020       C  0.84149126  0.21666252  0.97703431     0.28700
C4021       C  0.82138639  0.20098846  0.98305996    -0.25100
C4022       C  0.82499442  0.17517114  0.98503311    -0.24400
C4023       C  0.84935722  0.16536591  0.98317925     0.40200
C4024       C  0.86933726  0.18103630  0.97758966    -0.26900
O4025       O  0.83753123  0.24172735  0.97389572    -0.58800
H4026       H  0.80285325  0.20882678  0.98501007     0.15800
O4027       O  0.85375729  0.14033089  0.98602274    -0.60200
H4028       H  0.88766367  0.17296071  0.97469918     0.14300
H4029       H  0.89232388  0.25685065  0.89521886     0.46100
H4030       H  0.82966888  0.24340224  0.95728235     0.41500
H4031       H  0.86040263  0.13850012  0.00316138     0.45000
H4032       H  0.90877050  0.23093513  0.00473069     0.36400
C4033       C  0.10870753  0.25008161  0.80162242    -0.27800
C4034       C  0.12674795  0.23235218  0.80867706     0.01800
C4035       C  0.11967119  0.21411988  0.82640277     0.29900
C4036       C  0.09568655  0.21451589  0.83733452    -0.19600
C4037       C  0.07786046  0.23260876  0.83067750    -0.29000
C4038       C  0.08461133  0.25025933  0.81226124     0.43900
C4039       C  0.15282124  0.23351209  0.79782762     0.05100
O4040       O  0.13609231  0.19583193  0.83334916    -0.57500
H4041       H  0.09114627  0.20074154  0.85142799     0.18000
O4042       O  0.06822418  0.26854986  0.80522381    -0.64200
H4043       H  0.11354353  0.26451379  0.78832049     0.16500
C4044       C  0.15684635  0.23685250  0.77200646     0.28700
C4045       C  0.18114789  0.23970155  0.76240253    -0.25100
C4046       C  0.20234323  0.23846812  0.77780304    -0.24400
C4047       C  0.19849521  0.23386691  0.80350937     0.40200
C4048       C  0.17399553  0.23201668  0.81331387    -0.26900
O4049       O  0.13710554  0.23722264  0.75581844    -0.58800
H4050       H  0.18346951  0.24290609  0.74258103     0.15800
O4051       O  0.21847624  0.23157849  0.81926865    -0.60200
H4052       H  0.17160797  0.22961833  0.83323093     0.14300
H4053       H  0.07157539  0.28273883  0.81659090     0.46100
H4054       H  0.13482873  0.21963583  0.75057042     0.41500
H4055       H  0.21703958  0.21478940  0.82687278     0.45000
H4056       H  0.13282461  0.18174949  0.82183521     0.36400
C4057       C  0.03094421  0.42241305  0.95082689    -0.27800
C4058       C  0.01188461  0.40442188  0.95347654     0.01800
C4059       C  0.99025281  0.41116688  0.96703976     0.29900
C4060       C  0.98823402  0.43491380  0.97793703    -0.19600
C4061       C  0.00726735  0.45283351  0.97536612    -0.29000
C4062       C  0.02858604  0.44648238  0.96119357     0.43900
C4063       C  0.01434343  0.37900265  0.94167623     0.05100
O4064       O  0.97069342  0.39481300  0.96950179    -0.57500
H4065       H  0.97155521  0.43943037  0.98849529     0.18000
O4066       O  0.04737333  0.46352265  0.95765661    -0.64200
H4067       H  0.04783218  0.41782123  0.94067338     0.16500
C4068       C  0.02165611  0.37616415  0.91650769     0.28700
C4069       C  0.02271041  0.35236119  0.90552689    -0.25100
C4070       C  0.01589251  0.33071292  0.91886052    -0.24400
C4071       C  0.00912047  0.33346704  0.94421399     0.40200
C4072       C  0.00855171  0.35729121  0.95534909    -0.26900
O4073       O  0.02683872  0.39663280  0.90204097    -0.58800
H4074       H  0.02787858  0.35105736  0.88602747     0.15800
O4075       O  0.00215308  0.31313075  0.95812164    -0.60200
H4076       H  0.00324394  0.35877954  0.97479827     0.14300
H4077       H  0.04629509  0.46850086  0.93989384     0.46100
H4078       H  0.01049308  0.40198182  0.89527166     0.41500
H4079       H  0.01610409  0.31025806  0.96985664     0.45000
H4080       H  0.96025359  0.39750915  0.95451534     0.36400
C4081       C  0.87642867  0.28596388  0.83020510    -0.27800
C4082       C  0.86936952  0.26771459  0.81270660     0.01800
C4083       C  0.88700073  0.24912329  0.80639496     0.29900
C4084       C  0.91067212  0.24883652  0.81752365    -0.19600
C4085       C  0.91733812  0.26640413  0.83576014    -0.29000
C4086       C  0.89993278  0.28522047  0.84191580     0.43900
C4087       C  0.84364355  0.26764345  0.80146425     0.05100
O4088       O  0.88101473  0.23042245  0.79003296    -0.57500
H4089       H  0.92344029  0.23394705  0.81267663     0.18000
O4090       O  0.90583098  0.30322645  0.85908237    -0.64200
H4091       H  0.86360869  0.30080851  0.83501596     0.16500
C4092       C  0.82182056  0.27026300  0.81621308     0.28700
C4093       C  0.79799496  0.26812199  0.80536516    -0.25100
C4094       C  0.79528044  0.26249781  0.77991638    -0.24400
C4095       C  0.81703316  0.26056315  0.76510343     0.40200
C4096       C  0.84073735  0.26358049  0.77572808    -0.26900
O4097       O  0.82348559  0.27414568  0.84141434    -0.58800
H4098       H  0.78157561  0.27009257  0.81704066     0.15800
O4099       O  0.81533305  0.25533821  0.74013071    -0.60200
H4100       H  0.85700674  0.26218566  0.76375868     0.14300
H4101       H  0.89660358  0.29855289  0.87445814     0.46100
H4102       H  0.82286816  0.25729510  0.84896747     0.41500
H4103       H  0.81697978  0.23697121  0.73889685     0.45000
H4104       H  0.87211788  0.21773918  0.80018924     0.36400
C4105       C  0.91100830  0.02387327  0.00988720    -0.27800
C4106       C  0.90853779  0.04966392  0.01357074     0.01800
C4107       C  0.93043250  0.06402719  0.01701940     0.29900
C4108       C  0.95396916  0.05247203  0.01712428    -0.19600
C4109       C  0.95632096  0.02685094  0.01216503    -0.29000
C4110       C  0.93451318  0.01272680  0.00821515     0.43900
C4111       C  0.88310912  0.06117174  0.01342653     0.05100
O4112       O  0.92915767  0.08944623  0.01945406    -0.57500
H4113       H  0.97046929  0.06372592  0.02015695     0.18000
O4114       O  0.93600401  0.98804329  0.00180500    -0.64200
H4115       H  0.89462415  0.01226245  0.00767368     0.16500
C4116       C  0.86532031  0.05482721  0.99507626     0.28700
C4117       C  0.84139122  0.06545097  0.99562037    -0.25100
C4118       C  0.83478430  0.08299431  0.01387901    -0.24400
C4119       C  0.85268630  0.08960862  0.03202906     0.40200
C4120       C  0.87629509  0.07834423  0.03199967    -0.26900
O4121       O  0.87164778  0.03944218  0.97561516    -0.58800
H4122       H  0.82831769  0.06068414  0.98101066     0.15800
O4123       O  0.84706414  0.10656516  0.05036721    -0.60200
H4124       H  0.88933698  0.08312042  0.04662502     0.14300
H4125       H  0.93673598  0.98786724  0.98332730     0.46100
H4126       H  0.86170866  0.02401236  0.97810694     0.41500
H4127       H  0.85586724  0.12211312  0.04554311     0.45000
H4128       H  0.93008707  0.09600961  0.00217847     0.36400
C4129       C  0.07617233  0.03075846  0.87370210    -0.27800
C4130       C  0.06052212  0.01126717  0.88177806     0.01800
C4131       C  0.05532053  0.99160921  0.86500268     0.29900
C4132       C  0.06554367  0.99172405  0.84090568    -0.19600
C4133       C  0.08185064  0.01072964  0.83320984    -0.29000
C4134       C  0.08715083  0.03036011  0.84988292     0.43900
C4135       C  0.04961721  0.01152853  0.90751990     0.05100
O4136       O  0.04091947  0.97168228  0.87219884    -0.57500
H4137       H  0.06167638  0.97616941  0.82861819     0.18000
O4138       O  0.10271106  0.04948668  0.84292577    -0.64200
H4139       H  0.08003969  0.04634166  0.88593595     0.16500
C4140       C  0.06430363  0.01659846  0.92881168     0.28700
C4141       C  0.05350695  0.01610127  0.95275164    -0.25100
C4142       C  0.02831447  0.00961195  0.95600736    -0.24400
C4143       C  0.01376627  0.00437137  0.93480940     0.40200
C4144       C  0.02419875  0.00599147  0.91093496    -0.26900
O4145       O  0.08937893  0.02127897  0.92653943    -0.58800
H4146       H  0.06501903  0.01995797  0.96885535     0.15800
O4147       O  0.98932839  0.99706918  0.93727154    -0.60200
H4148       H  0.01236664  0.00244079  0.89499589     0.14300
H4149       H  0.11900863  0.04562996  0.85072112     0.46100
H4150       H  0.09755803  0.00483568  0.92863084     0.41500
H4151       H  0.98996026  0.97884991  0.94035627     0.45000
H4152       H  0.05266767  0.95984931  0.88013335     0.36400
C4153       C  0.99864636  0.85879327  0.04870583    -0.27800
C4154       C  0.01856791  0.87553191  0.05235052     0.01800
C4155       C  0.03926186  0.86722211  0.06635579     0.29900
C4156       C  0.03882627  0.84368782  0.07804165    -0.19600
C4157       C  0.01835885  0.82746564  0.07529042    -0.29000
C4158       C  0.99860479  0.83494211  0.05962332     0.43900
C4159       C  0.01679385  0.90193090  0.04289961     0.05100
O4160       O  0.05985160  0.88215843  0.06918818    -0.57500
H4161       H  0.05436962  0.83828228  0.08971175     0.18000
O4162       O  0.97805091  0.81999155  0.05659475    -0.64200
H4163       H  0.98239280  0.86460159  0.03828933     0.16500
C4164       C  0.00918174  0.90731339  0.01830640     0.28700
C4165       C  0.00658102  0.93217455  0.01038533    -0.25100
C4166       C  0.01113359  0.95231169  0.02656464    -0.24400
C4167       C  0.01885049  0.94707027  0.05108288     0.40200
C4168       C  0.02167238  0.92213816  0.05900912    -0.26900
O4169       O  0.00520308  0.88841273  0.00153749    -0.58800
H4170       H  0.00091333  0.93579444  0.99134829     0.15800
O4171       O  0.02434260  0.96613874  0.06718862    -0.60200
H4172       H  0.02727782  0.91861138  0.07806251     0.14300
H4173       H  0.98151183  0.81017314  0.04130774     0.46100
H4174       H  0.98694424  0.88829267  0.99848721     0.41500
H4175       H  0.01166489  0.96507500  0.08067758     0.45000
H4176       H  0.07002428  0.87942705  0.05393029     0.36400
C4177       C  0.09168518  0.96965828  0.00886227    -0.27800
C4178       C  0.09786784  0.95424010  0.98858697     0.01800
C4179       C  0.07922279  0.94923841  0.97059398     0.29900
C4180       C  0.05503268  0.95902084  0.97341471    -0.19600
C4181       C  0.04909225  0.97443211  0.99370108    -0.29000
C4182       C  0.06771676  0.97988465  0.01134001     0.43900
C4183       C  0.12320251  0.94238690  0.98726192     0.05100
O4184       O  0.08449174  0.93501160  0.95000771    -0.57500
H4185       H  0.04098185  0.95491051  0.95953370     0.18000
O4186       O  0.06280192  0.99600540  0.03061513    -0.64200
H4187       H  0.10533886  0.97354034  0.02317048     0.16500
C4188       C  0.14542981  0.95586765  0.99196522     0.28700
C4189       C  0.16868471  0.94357371  0.99227528    -0.25100
C4190       C  0.17038544  0.91779773  0.98785716    -0.24400
C4191       C  0.14813375  0.90456275  0.98247397     0.40200
C4192       C  0.12505706  0.91676470  0.98243386    -0.26900
O4193       O  0.14470462  0.98118661  0.99555101    -0.58800
H4194       H  0.18539803  0.95426194  0.99614619     0.15800
O4195       O  0.14850693  0.87947466  0.97750509    -0.60200
H4196       H  0.10836736  0.90580987  0.97926821     0.14300
H4197       H  0.06419047  0.98592739  0.04604321     0.46100
H4198       H  0.14920141  0.98381676  0.01328662     0.41500
H4199       H  0.14352369  0.87127668  0.99332139     0.45000
H4200       H  0.09004913  0.94704296  0.93707828     0.36400
C4201       C  0.95276202  0.98850874  0.14368906    -0.27800
C4202       C  0.93926513  0.98827548  0.12122444     0.01800
C4203       C  0.91299157  0.98802642  0.12242115     0.29900
C4204       C  0.90069822  0.98802155  0.14558987    -0.19600
C4205       C  0.91410770  0.98873981  0.16812335    -0.29000
C4206       C  0.94043244  0.98869493  0.16694148     0.43900
C4207       C  0.95253409  0.98889867  0.09662110     0.05100
O4208       O  0.89909435  0.98848262  0.10099658    -0.57500
H4209       H  0.88047400  0.98828228  0.14585235     0.18000
O4210       O  0.95432791  0.98883968  0.18834979    -0.64200
H4211       H  0.97297726  0.98849008  0.14320003     0.16500
C4212       C  0.96884591  0.00859861  0.09044925     0.28700
C4213       C  0.98000657  0.00963795  0.06675405    -0.25100
C4214       C  0.97566976  0.99100024  0.04884220    -0.24400
C4215       C  0.95969346  0.97102386  0.05506356     0.40200
C4216       C  0.94828137  0.97011677  0.07879311    -0.26900
O4217       O  0.97310767  0.02755466  0.10706349    -0.58800
H4218       H  0.99215301  0.02519769  0.06226256     0.15800
O4219       O  0.95531940  0.95230378  0.03818969    -0.60200
H4220       H  0.93598208  0.95469091  0.08327917     0.14300
H4221       H  0.95700264  0.97101497  0.19247284     0.46100
H4222       H  0.98978152  0.02405792  0.11423009     0.41500
H4223       H  0.93705192  0.95230045  0.03525825     0.45000
H4224       H  0.89667282  0.00642170  0.09717894     0.36400
C4225       C  0.00855903  0.13232130  0.93547210    -0.27800
C4226       C  0.98634387  0.12060791  0.94329777     0.01800
C4227       C  0.96365451  0.13385665  0.94072049     0.29900
C4228       C  0.96353415  0.15790879  0.92993962    -0.19600
C4229       C  0.98586608  0.16938544  0.92227187    -0.29000
C4230       C  0.00846462  0.15640877  0.92533854     0.43900
C4231       C  0.98777707  0.09508487  0.95483742     0.05100
O4232       O  0.94175849  0.12400448  0.94976544    -0.57500
H4233       H  0.94598516  0.16766019  0.92769180     0.18000
O4234       O  0.03053606  0.16659534  0.91717437    -0.64200
H4235       H  0.02620295  0.12260328  0.93699099     0.16500
C4236       C  0.97234184  0.07502567  0.94727753     0.28700
C4237       C  0.97496802  0.05128078  0.95825833    -0.25100
C4238       C  0.99352216  0.04678724  0.97615508    -0.24400
C4239       C  0.00917506  0.06660095  0.98331291     0.40200
C4240       C  0.00607359  0.09039926  0.97298882    -0.26900
O4241       O  0.95511140  0.07815557  0.92872112    -0.58800
H4242       H  0.96265248  0.03630330  0.95262342     0.15800
O4243       O  0.02706017  0.06305117  0.00118615    -0.60200
H4244       H  0.01813440  0.10534771  0.97925420     0.14300
H4245       H  0.03723847  0.17582055  0.93169658     0.46100
H4246       H  0.96420623  0.07445644  0.91302253     0.41500
H4247       H  0.04253257  0.05902431  0.99182768     0.45000
H4248       H  0.93091257  0.12158896  0.93501578     0.36400
loop_ 
_geom_bond_atom_site_label_1 
_geom_bond_atom_site_label_2 
_geom_bond_distance 
_geom_bond_site_symmetry_2 
_ccdc_geom_bond_type 
C1            C2   1.419   1_554  A
C1            C6   1.427   1_545  A
C1         C4109   1.498       .  S
C2            C3   1.416   1_655  A
C2         C4238   1.501       .  S
C3            C4   1.419   1_545  A
C3         C4142   1.494       .  S
C4            C5   1.420   1_556  A
C4         C4181   1.495       .  S
C5            C6   1.425   1_455  A
C5         C4166   1.505       .  S
C6         C4214   1.499       .  S
O7           C15   1.271       .  A
O7          Co27   2.015       .  S
O8           C16   1.272       .  A
O8          Co28   2.013       .  S
O9           C17   1.264       .  A
O9          Co29   1.974       .  S
O10          C18   1.266       .  A
O10         Co30   1.982       .  S
O11          C17   1.272       .  A
O11         Co28   2.037       .  S
O12          C18   1.272       .  A
O12         Co27   2.038       .  S
O13          C16   1.262       .  A
O13         Co30   1.966   1_655  S
O14          C15   1.262   1_655  A
O14         Co29   1.966       .  S
C15        C3965   1.467       .  S
C16        C3989   1.467       .  S
C17        C4085   1.496       .  S
C18        C4037   1.503       .  S
O19          C32   1.262       .  A
O19         Co27   1.965       .  S
O20          C33   1.262       .  A
O20         Co28   1.964       .  S
O21          C34   1.270       .  A
O21         Co29   2.035       .  S
O22          C35   1.274       .  A
O22         Co30   2.044       .  S
O23          C35   1.264       .  A
O23         Co28   1.979   1_455  S
O24          C34   1.263       .  A
O24         Co27   1.973   1_655  S
O25          C32   1.270       .  A
O25         Co30   2.007       .  S
O26          C33   1.272       .  A
O26         Co29   2.014       .  S
Co27         O31   2.107   1_455  S
Co28         O31   2.108       .  S
Co29         O31   2.108       .  S
Co30         O31   2.110   1_455  S
C32        C3941   1.462       .  S
C33        C4013   1.470       .  S
C34        C4229   1.485       .  S
C35        C4070   1.505       .  S
O36          C44   1.277       .  A
O36         Co56   2.021       .  S
O37          C45   1.278       .  A
O37         Co57   2.035       .  S
O38          C46   1.262       .  A
O38         Co58   1.978       .  S
O39          C47   1.261       .  A
O39         Co59   1.972       .  S
O40          C46   1.266       .  A
O40         Co57   2.018       .  S
O41          C47   1.267       .  A
O41         Co56   2.025       .  S
O42          C45   1.263   1_545  A
O42         Co59   1.953       .  S
O43          C44   1.262       .  A
O43         Co58   1.947   1_545  S
C44        C3806   1.460       .  S
C45        C3830   1.459       .  S
C46        C3869   1.486       .  S
C47        C3893   1.489       .  S
O48          C61   1.267       .  A
O48         Co56   1.963       .  S
O49          C62   1.268       .  A
O49         Co57   1.968       .  S
O50          C63   1.268       .  A
O50         Co58   2.029       .  S
O51          C64   1.265       .  A
O51         Co59   2.016       .  S
O52          C64   1.262   1_565  A
O52         Co57   1.985       .  S
O53          C63   1.263   1_545  A
O53         Co56   1.984       .  S
O54          C61   1.276       .  A
O54         Co59   2.019       .  S
O55          C62   1.275       .  A
O55         Co58   2.013       .  S
Co56         O60   2.107       .  S
Co57         O60   2.104   1_565  S
Co58         O60   2.101   1_565  S
Co59         O60   2.097       .  S
C61        C3773   1.473       .  S
C62        C3854   1.474       .  S
C63        C4205   1.495       .  S
C64        C3926   1.482       .  S
C65          C66   1.417   1_565  A
C65          C70   1.418       .  A
C65        C3662   1.493       .  S
C66          C67   1.415   1_655  A
C66        C3917   1.490       .  S
C67          C68   1.420       .  A
C67        C3725   1.498       .  S
C68          C69   1.424   1_545  A
C68        C3677   1.491       .  S
C69          C70   1.421   1_455  A
C69        C3701   1.501       .  S
C70        C3758   1.498       .  S
O71          C79   1.279       .  A
O71         Co91   2.032       .  S
O72          C80   1.276       .  A
O72         Co92   2.016       .  S
O73          C81   1.263       .  A
O73         Co93   1.979       .  S
O74          C82   1.264       .  A
O74         Co94   1.981       .  S
O75          C81   1.268       .  A
O75         Co92   2.033       .  S
O76          C82   1.268       .  A
O76         Co91   2.031       .  S
O77          C80   1.267   1_455  A
O77         Co94   1.965       .  S
O78          C79   1.265   1_655  A
O78         Co93   1.958       .  S
C79        C3494   1.471       .  S
C80        C3509   1.469       .  S
C81        C3638   1.498       .  S
C82        C3581   1.502       .  S
O83          C96   1.266       .  A
O83         Co91   1.961       .  S
O84          C97   1.264       .  A
O84         Co92   1.960       .  S
O85          C98   1.266       .  A
O85         Co93   2.020       .  S
O86          C99   1.265       .  A
O86         Co94   2.013       .  S
O87          C99   1.264   1_655  A
O87         Co92   1.985       .  S
O88          C98   1.260       .  A
O88         Co91   1.986   1_655  S
O89          C96   1.277       .  A
O89         Co94   2.026       .  S
O90          C97   1.276       .  A
O90         Co93   2.022       .  S
Co91         O95   2.107   1_455  S
Co92         O95   2.109       .  S
Co93         O95   2.107       .  S
Co94         O95   2.100   1_455  S
C96        C3533   1.471       .  S
C97        C3566   1.467       .  S
C98        C3749   1.491       .  S
C99        C3614   1.495       .  S
O100        C108   1.274       .  A
O100       Co120   2.006       .  S
O101        C109   1.277       .  A
O101       Co121   2.024       .  S
O102        C110   1.264       .  A
O102       Co122   1.983       .  S
O103        C111   1.261       .  A
O103       Co123   1.973       .  S
O104        C110   1.267       .  A
O104       Co121   2.020       .  S
O105        C111   1.269       .  A
O105       Co120   2.035       .  S
O106        C109   1.264   1_554  A
O106       Co123   1.954       .  S
O107        C108   1.268       .  A
O107       Co122   1.967   1_554  S
C108       C3326   1.470       .  S
C109       C3341   1.465       .  S
C110       C3413   1.495       .  S
C111       C3446   1.489       .  S
O112        C125   1.264       .  A
O112       Co120   1.954       .  S
O113        C126   1.265       .  A
O113       Co121   1.957       .  S
O114        C127   1.265       .  A
O114       Co122   2.012       .  S
O115        C128   1.265       .  A
O115       Co123   2.014       .  S
O116        C128   1.261   1_556  A
O116       Co121   1.978       .  S
O117        C127   1.265   1_554  A
O117       Co120   1.988       .  S
O118        C125   1.277       .  A
O118       Co123   2.027       .  S
O119        C126   1.277       .  A
O119       Co122   2.027       .  S
Co120       O124   2.108   1_554  S
Co121       O124   2.104       .  S
Co122       O124   2.099       .  S
Co123       O124   2.101   1_554  S
C125       C3374   1.464       .  S
C126       C3398   1.467       .  S
C127       C4190   1.497       .  S
C128       C3470   1.489       .  S
O129        C137   1.263   1_455  A
O129       Co149   1.971       .  S
O130        C138   1.261       .  A
O130       Co150   1.966   1_455  S
O131        C139   1.272       .  A
O131       Co151   2.031       .  S
O132        C140   1.269       .  A
O132       Co152   2.025       .  S
O133        C139   1.267       .  A
O133       Co150   1.983       .  S
O134        C140   1.265       .  A
O134       Co149   1.975       .  S
O135        C138   1.272       .  A
O135       Co152   2.020       .  S
O136        C137   1.270       .  A
O136       Co151   2.014       .  S
C137       C3845   1.469       .  S
C138       C3221   1.465       .  S
C139       C3269   1.503       .  S
C140       C3293   1.478       .  S
O141        C154   1.269       .  A
O141       Co149   2.007       .  S
O142        C155   1.270       .  A
O142       Co150   1.999       .  S
O143        C156   1.264       .  A
O143       Co151   1.975   1_455  S
O144        C157   1.263   1_455  A
O144       Co152   1.972       .  S
O145        C157   1.275       .  A
O145       Co150   2.050       .  S
O146        C156   1.274       .  A
O146       Co149   2.042       .  S
O147        C154   1.262       .  A
O147       Co152   1.966       .  S
O148        C155   1.263       .  A
O148       Co151   1.963       .  S
Co149       O153   2.107       .  S
Co150       O153   2.105   1_655  S
Co151       O153   2.105   1_655  S
Co152       O153   2.104       .  S
C154       C3317   1.459       .  S
C155       C3197   1.471       .  S
C156       C4157   1.496       .  S
C157       C3245   1.502       .  S
C158        C159   1.423       .  A
C158        C163   1.422       .  A
C158       C3125   1.498       .  S
C159        C160   1.421       .  A
C159       C3437   1.503       .  S
C160        C161   1.422       .  A
C160       C3302   1.494       .  S
C161        C162   1.422       .  A
C161       C3158   1.504       .  S
C162        C163   1.419       .  A
C162       C3173   1.497       .  S
C163       C3101   1.502       .  S
O164        C172   1.268       .  A
O164       Co184   1.964       .  S
O165        C173   1.270       .  A
O165       Co185   1.963       .  S
O166        C174   1.263       .  A
O166       Co186   2.008       .  S
O167        C175   1.266       .  A
O167       Co187   2.029       .  S
O168        C174   1.264       .  A
O168       Co185   1.992       .  S
O169        C175   1.262       .  A
O169       Co184   1.981       .  S
O170        C173   1.277       .  A
O170       Co187   2.017       .  S
O171        C172   1.278       .  A
O171       Co186   2.026       .  S
C172       C3542   1.472       .  S
C173       C3005   1.472       .  S
C174       C3077   1.496       .  S
C175       C3182   1.497       .  S
O176        C189   1.281       .  A
O176       Co184   2.042       .  S
O177        C190   1.279       .  A
O177       Co185   2.030       .  S
O178        C191   1.261       .  A
O178       Co186   1.976       .  S
O179        C192   1.261       .  A
O179       Co187   1.975       .  S
O180        C192   1.264       .  A
O180       Co185   2.018       .  S
O181        C191   1.262       .  A
O181       Co184   2.008       .  S
O182        C189   1.260       .  A
O182       Co187   1.950       .  S
O183        C190   1.264       .  A
O183       Co186   1.949       .  S
Co184       O188   2.104       .  S
Co185       O188   2.108       .  S
Co186       O188   2.098       .  S
Co187       O188   2.099       .  S
C189       C2966   1.461       .  S
C190       C2981   1.460       .  S
C191       C3053   1.484       .  S
C192       C3029   1.488       .  S
C193        C194   1.426       .  A
C193        C198   1.424       .  A
C193       C2918   1.507       .  S
C194        C195   1.425       .  A
C194       C3086   1.498       .  S
C195        C196   1.424       .  A
C195       C3590   1.512       .  S
C196        C197   1.424       .  A
C196       C2885   1.494       .  S
C197        C198   1.421       .  A
C197       C3422   1.506       .  S
C198       C2933   1.498       .  S
O199        C207   1.280       .  A
O199       Co219   2.036       .  S
O200        C208   1.281       .  A
O200       Co220   2.034       .  S
O201        C209   1.262       .  A
O201       Co221   1.989       .  S
O202        C210   1.263       .  A
O202       Co222   1.985       .  S
O203        C209   1.262       .  A
O203       Co220   2.011       .  S
O204        C210   1.263       .  A
O204       Co219   2.017       .  S
O205        C208   1.268       .  A
O205       Co222   1.955       .  S
O206        C207   1.262       .  A
O206       Co221   1.945       .  S
C207       C3350   1.458       .  S
C208       C2765   1.474       .  S
C209       C2822   1.485       .  S
C210       C2861   1.494       .  S
O211        C224   1.266       .  A
O211       Co219   1.956       .  S
O212        C225   1.270       .  A
O212       Co220   1.965       .  S
O213        C226   1.265       .  A
O213       Co221   2.027       .  S
O214        C227   1.263       .  A
O214       Co222   2.008       .  S
O215        C227   1.263       .  A
O215       Co220   1.986       .  S
O216        C226   1.260       .  A
O216       Co219   1.980       .  S
O217        C224   1.278       .  A
O217       Co222   2.025       .  S
O218        C225   1.278       .  A
O218       Co221   2.020       .  S
Co219       O223   2.101       .  S
Co220       O223   2.106       .  S
Co221       O223   2.098       .  S
Co222       O223   2.096       .  S
C224       C2741   1.462       .  S
C225       C2789   1.471       .  S
C226       C2942   1.491       .  S
C227       C2837   1.493       .  S
C228        C229   1.427       .  A
C228        C233   1.431       .  A
C228       C2645   1.501       .  S
C229        C230   1.419       .  A
C229       C4094   1.508       .  S
C230        C231   1.419       .  A
C230       C2717   1.498       .  S
C231        C232   1.419       .  A
C231       C2702   1.496       .  S
C232        C233   1.426       .  A
C232       C2678   1.503       .  S
C233       C2630   1.505       .  S
O234        C242   1.271       .  A
O234       Co254   2.007       .  S
O235        C243   1.274       .  A
O235       Co255   2.017       .  S
O236        C244   1.266       .  A
O236       Co256   1.979       .  S
O237        C245   1.263       .  A
O237       Co257   1.975       .  S
O238        C244   1.271       .  A
O238       Co255   2.029       .  S
O239        C245   1.271       .  A
O239       Co254   2.033       .  S
O240        C243   1.262       .  A
O240       Co257   1.963       .  S
O241        C242   1.268       .  A
O241       Co256   1.973       .  S
C242       C3998   1.480       .  S
C243       C3518   1.468       .  S
C244       C2549   1.495       .  S
C245       C2573   1.489       .  S
O246        C259   1.262       .  A
O246       Co254   1.960       .  S
O247        C260   1.268       .  A
O247       Co255   1.973       .  S
O248        C261   1.268       .  A
O248       Co256   2.017       .  S
O249        C262   1.270       .  A
O249       Co257   2.025       .  S
O250        C262   1.267       .  A
O250       Co255   1.991       .  S
O251        C261   1.265       .  A
O251       Co254   1.979       .  S
O252        C259   1.274       .  A
O252       Co257   2.019       .  S
O253        C260   1.273       .  A
O253       Co256   2.014       .  S
Co254       O258   2.101       .  S
Co255       O258   2.110       .  S
Co256       O258   2.102       .  S
Co257       O258   2.100       .  S
C259       C2534   1.470       .  S
C260       C2510   1.476       .  S
C261       C2726   1.495       .  S
C262       C2606   1.502       .  S
O263        C271   1.264   1_455  A
O263       Co283   1.956       .  S
O264        C272   1.270   1_655  A
O264       Co284   1.976       .  S
O265        C273   1.268       .  A
O265       Co285   2.023       .  S
O266        C274   1.267       .  A
O266       Co286   2.019       .  S
O267        C273   1.267       .  A
O267       Co284   1.992       .  S
O268        C274   1.265       .  A
O268       Co283   1.982       .  S
O269        C272   1.274       .  A
O269       Co286   2.012       .  S
O270        C271   1.275       .  A
O270       Co285   2.022       .  S
C271       C3782   1.462       .  S
C272       C2414   1.480       .  S
C273       C2462   1.499       .  S
C274       C2477   1.494       .  S
O275        C288   1.274       .  A
O275       Co283   2.012       .  S
O276        C289   1.276       .  A
O276       Co284   2.022       .  S
O277        C290   1.261   1_655  A
O277       Co285   1.981       .  S
O278        C291   1.264       .  A
O278       Co286   1.973   1_655  S
O279        C291   1.269       .  A
O279       Co284   2.022       .  S
O280        C290   1.268       .  A
O280       Co283   2.023       .  S
O281        C288   1.266       .  A
O281       Co286   1.969       .  S
O282        C289   1.264       .  A
O282       Co285   1.951       .  S
Co283       O287   2.106   1_455  S
Co284       O287   2.109       .  S
Co285       O287   2.099       .  S
Co286       O287   2.101   1_455  S
C288       C2381   1.469       .  S
C289       C2366   1.461       .  S
C290       C3734   1.494       .  S
C291       C2429   1.489       .  S
C292        C293   1.431       .  A
C292        C297   1.428       .  A
C292       C2246   1.513       .  S
C293        C294   1.424       .  A
C293       C2486   1.497       .  S
C294        C295   1.420       .  A
C294       C2261   1.501       .  S
C295        C296   1.420       .  A
C295       C2309   1.503       .  S
C296        C297   1.425       .  A
C296       C2285   1.506       .  S
C297       C2342   1.499       .  S
O298        C306   1.265       .  A
O298       Co318   1.962   1_556  S
O299        C307   1.264   1_556  A
O299       Co319   1.955       .  S
O300        C308   1.269       .  A
O300       Co320   2.030       .  S
O301        C309   1.266       .  A
O301       Co321   2.012       .  S
O302        C308   1.261       .  A
O302       Co319   1.978       .  S
O303        C309   1.265       .  A
O303       Co318   1.989       .  S
O304        C307   1.274       .  A
O304       Co321   2.013       .  S
O305        C306   1.274       .  A
O305       Co320   2.012       .  S
C306       C3950   1.471       .  S
C307       C2141   1.460       .  S
C308       C2213   1.493       .  S
C309       C2333   1.497       .  S
O310        C323   1.274       .  A
O310       Co318   2.008       .  S
O311        C324   1.275       .  A
O311       Co319   2.021       .  S
O312        C325   1.263       .  A
O312       Co320   1.977   1_554  S
O313        C326   1.268   1_554  A
O313       Co321   1.990       .  S
O314        C326   1.269       .  A
O314       Co319   2.028       .  S
O315        C325   1.270       .  A
O315       Co318   2.039       .  S
O316        C323   1.269       .  A
O316       Co321   1.964       .  S
O317        C324   1.260       .  A
O317       Co320   1.948       .  S
Co318       O322   2.111   1_554  S
Co319       O322   2.104       .  S
Co320       O322   2.100       .  S
Co321       O322   2.101   1_554  S
C323       C2117   1.476       .  S
C324       C2102   1.452       .  S
C325       C2165   1.499       .  S
C326       C2189   1.504       .  S
C327        C328   1.425       .  A
C327        C332   1.425       .  A
C327       C2222   1.497       .  S
C328        C329   1.427       .  A
C328       C4046   1.519       .  S
C329        C330   1.428       .  A
C329       C2021   1.490       .  S
C330        C331   1.425       .  A
C330       C1997   1.517       .  S
C331        C332   1.426       .  A
C331       C2069   1.503       .  S
C332       C2045   1.505       .  S
O333        C341   1.278       .  A
O333       Co353   2.032       .  S
O334        C342   1.276       .  A
O334       Co354   2.016       .  S
O335        C343   1.263       .  A
O335       Co355   1.990       .  S
O336        C344   1.268       .  A
O336       Co356   1.993       .  S
O337        C343   1.268       .  A
O337       Co354   2.035       .  S
O338        C344   1.265       .  A
O338       Co353   2.016       .  S
O339        C342   1.268       .  A
O339       Co356   1.962       .  S
O340        C341   1.260       .  A
O340       Co355   1.947       .  S
C341       C1862   1.455       .  S
C342       C1901   1.474       .  S
C343       C1982   1.496       .  S
C344       C1958   1.494       .  S
O345        C358   1.266       .  A
O345       Co353   1.963       .  S
O346        C359   1.268       .  A
O346       Co354   1.968       .  S
O347        C360   1.270       .  A
O347       Co355   2.036       .  S
O348        C361   1.267       .  A
O348       Co356   2.018       .  S
O349        C361   1.266       .  A
O349       Co354   1.989       .  S
O350        C360   1.261       .  A
O350       Co353   1.978       .  S
O351        C358   1.275       .  A
O351       Co356   2.013       .  S
O352        C359   1.275       .  A
O352       Co355   2.016       .  S
Co353       O357   2.100       .  S
Co354       O357   2.109       .  S
Co355       O357   2.098       .  S
Co356       O357   2.109       .  S
C358       C1925   1.468       .  S
C359       C1877   1.471       .  S
C360       C2669   1.497       .  S
C361       C2078   1.501       .  S
O362        C370   1.265   1_545  A
O362       Co382   1.963       .  S
O363        C371   1.264       .  A
O363       Co383   1.958   1_545  S
O364        C372   1.268       .  A
O364       Co384   2.023       .  S
O365        C373   1.270       .  A
O365       Co385   2.029       .  S
O366        C372   1.263       .  A
O366       Co383   1.979       .  S
O367        C373   1.263       .  A
O367       Co382   1.978       .  S
O368        C371   1.274       .  A
O368       Co385   2.017       .  S
O369        C370   1.273       .  A
O369       Co384   2.013       .  S
C370       C3365   1.469       .  S
C371       C1781   1.466       .  S
C372       C3134   1.497       .  S
C373       C2318   1.497       .  S
O374        C387   1.274       .  A
O374       Co382   2.024       .  S
O375        C388   1.273       .  A
O375       Co383   2.015       .  S
O376        C389   1.265   1_565  A
O376       Co384   1.981       .  S
O377        C390   1.262   1_545  A
O377       Co385   1.976       .  S
O378        C390   1.269       .  A
O378       Co383   2.029       .  S
O379        C389   1.269       .  A
O379       Co382   2.026       .  S
O380        C387   1.260       .  A
O380       Co385   1.955       .  S
O381        C388   1.265       .  A
O381       Co384   1.960       .  S
Co382       O386   2.109       .  S
Co383       O386   2.107   1_565  S
Co384       O386   2.101   1_565  S
Co385       O386   2.099       .  S
C387       C1757   1.455       .  S
C388       C1733   1.478       .  S
C389       C1805   1.495       .  S
C390       C1829   1.492       .  S
C391        C392   1.424       .  A
C391        C396   1.421       .  A
C391       C1973   1.508       .  S
C392        C393   1.426   1_545  A
C392       C1685   1.495       .  S
C393        C394   1.426       .  A
C393       C1637   1.510       .  S
C394        C395   1.427       .  A
C394       C1718   1.503       .  S
C395        C396   1.426   1_565  A
C395       C1838   1.504       .  S
C396       C1670   1.500       .  S
O397        C405   1.263       .  A
O397       Co417   1.968       .  S
O398        C406   1.267       .  A
O398       Co418   1.972       .  S
O399        C407   1.271       .  A
O399       Co419   2.024       .  S
O400        C408   1.273       .  A
O400       Co420   2.035       .  S
O401        C407   1.270       .  A
O401       Co418   1.994       .  S
O402        C408   1.266       .  A
O402       Co417   1.984       .  S
O403        C406   1.268       .  A
O403       Co420   1.994       .  S
O404        C405   1.270       .  A
O404       Co419   2.007       .  S
C405       C3014   1.463       .  S
C406       C1565   1.475       .  S
C407       C1598   1.507       .  S
C408       C1709   1.499       .  S
O409        C422   1.272       .  A
O409       Co417   2.013       .  S
O410        C423   1.269       .  A
O410       Co418   2.000       .  S
O411        C424   1.266       .  A
O411       Co419   1.978       .  S
O412        C425   1.267       .  A
O412       Co420   1.976       .  S
O413        C425   1.272       .  A
O413       Co418   2.036       .  S
O414        C424   1.273       .  A
O414       Co417   2.035       .  S
O415        C422   1.261       .  A
O415       Co420   1.962       .  S
O416        C423   1.265       .  A
O416       Co419   1.966       .  S
Co417       O421   2.102       .  S
Co418       O421   2.111       .  S
Co419       O421   2.102       .  S
Co420       O421   2.099       .  S
C422       C1742   1.464       .  S
C423       C1550   1.473       .  S
C424       C3110   1.494       .  S
C425       C1613   1.494       .  S
O426        C434   1.265       .  A
O426       Co446   1.961       .  S
O427        C435   1.264       .  A
O427       Co447   1.961       .  S
O428        C436   1.269       .  A
O428       Co448   2.023       .  S
O429        C437   1.267       .  A
O429       Co449   2.012       .  S
O430        C436   1.266   1_545  A
O430       Co447   1.987       .  S
O431        C437   1.267   1_565  A
O431       Co446   1.989       .  S
O432        C435   1.275       .  A
O432       Co449   2.020       .  S
O433        C434   1.273       .  A
O433       Co448   2.013       .  S
C434       C2750   1.472       .  S
C435       C1886   1.468       .  S
C436       C1517   1.497       .  S
C437       C1694   1.494       .  S
O438        C451   1.273       .  A
O438       Co446   2.007       .  S
O439        C452   1.273       .  A
O439       Co447   2.011       .  S
O440        C453   1.266       .  A
O440       Co448   1.979       .  S
O441        C454   1.264       .  A
O441       Co449   1.974       .  S
O442        C454   1.271       .  A
O442       Co447   2.034       .  S
O443        C453   1.271       .  A
O443       Co446   2.032       .  S
O444        C451   1.266   1_545  A
O444       Co449   1.969       .  S
O445        C452   1.266       .  A
O445       Co448   1.969   1_545  S
Co446       O450   2.106   1_565  S
Co447       O450   2.107       .  S
Co448       O450   2.102   1_565  S
Co449       O450   2.098       .  S
C451       C1469   1.474       .  S
C452       C1454   1.477       .  S
C453       C1493   1.491       .  S
C454       C2621   1.493       .  S
C455        C456   1.424   1_545  A
C455        C460   1.419       .  A
C455       C1814   1.508       .  S
C456        C457   1.424   1_554  A
C456       C3461   1.490       .  S
C457        C458   1.419       .  A
C457       C2870   1.502       .  S
C458        C459   1.417   1_565  A
C458       C1526   1.499       .  S
C459        C460   1.418   1_556  A
C459       C1406   1.494       .  S
C460       C1421   1.493       .  S
O461        C469   1.266       .  A
O461       Co481   1.958       .  S
O462        C470   1.264       .  A
O462       Co482   1.953       .  S
O463        C471   1.267       .  A
O463       Co483   2.020       .  S
O464        C472   1.265       .  A
O464       Co484   2.006       .  S
O465        C471   1.263       .  A
O465       Co482   1.980       .  S
O466        C472   1.265       .  A
O466       Co481   1.984       .  S
O467        C470   1.277       .  A
O467       Co484   2.025       .  S
O468        C469   1.275       .  A
O468       Co483   2.013       .  S
C469       C2150   1.464       .  S
C470       C1334   1.464       .  S
C471       C1349   1.488       .  S
C472       C1430   1.491       .  S
O473        C486   1.274       .  A
O473       Co481   2.012       .  S
O474        C487   1.275       .  A
O474       Co482   2.013       .  S
O475        C488   1.266       .  A
O475       Co483   1.981       .  S
O476        C489   1.261       .  A
O476       Co484   1.970       .  S
O477        C489   1.267       .  A
O477       Co482   2.022       .  S
O478        C488   1.268       .  A
O478       Co481   2.022       .  S
O479        C486   1.267       .  A
O479       Co484   1.963       .  S
O480        C487   1.268       .  A
O480       Co483   1.967       .  S
Co481       O485   2.104       .  S
Co482       O485   2.101       .  S
Co483       O485   2.101       .  S
Co484       O485   2.096       .  S
C486       C1766   1.477       .  S
C487       C1301   1.476       .  S
C488       C2294   1.491       .  S
C489       C1373   1.481       .  S
O490        C498   1.275       .  A
O490       Co510   2.012       .  S
O491        C499   1.275       .  A
O491       Co511   2.004       .  S
O492        C500   1.263       .  A
O492       Co512   1.983       .  S
O493        C501   1.265       .  A
O493       Co513   1.990       .  S
O494        C500   1.269       .  A
O494       Co511   2.030       .  S
O495        C501   1.268       .  A
O495       Co510   2.027       .  S
O496        C499   1.269       .  A
O496       Co513   1.973       .  S
O497        C498   1.269       .  A
O497       Co512   1.967       .  S
C498       C2390   1.473       .  S
C499       C1910   1.466       .  S
C500       C2006   1.501       .  S
C501       C2270   1.491       .  S
O502        C515   1.264       .  A
O502       Co510   1.950       .  S
O503        C516   1.264       .  A
O503       Co511   1.948       .  S
O504        C517   1.265       .  A
O504       Co512   2.016       .  S
O505        C518   1.265       .  A
O505       Co513   2.017       .  S
O506        C518   1.268       .  A
O506       Co511   1.999       .  S
O507        C517   1.264       .  A
O507       Co510   1.986       .  S
O508        C515   1.278       .  A
O508       Co513   2.023       .  S
O509        C516   1.279       .  A
O509       Co512   2.029       .  S
Co510       O514   2.102       .  S
Co511       O514   2.105       .  S
Co512       O514   2.101       .  S
Co513       O514   2.097       .  S
C515       C1790   1.460       .  S
C516       C1286   1.463       .  S
C517       C3686   1.494       .  S
C518       C1661   1.503       .  S
C519        C520   1.421       .  A
C519        C524   1.421       .  A
C519       C3878   1.496       .  S
C520        C521   1.423       .  A
C520       C3278   1.504       .  S
C521        C522   1.427       .  A
C521       C1238   1.503       .  S
C522        C523   1.425       .  A
C522       C1253   1.499       .  S
C523        C524   1.422       .  A
C523       C1622   1.504       .  S
C524       C1205   1.501       .  S
O525        C533   1.275       .  A
O525       Co545   2.019       .  S
O526        C534   1.278       .  A
O526       Co546   2.036       .  S
O527        C535   1.263       .  A
O527       Co547   1.976       .  S
O528        C536   1.259       .  A
O528       Co548   1.971       .  S
O529        C535   1.267       .  A
O529       Co546   2.028       .  S
O530        C536   1.268       .  A
O530       Co545   2.033       .  S
O531        C534   1.261       .  A
O531       Co548   1.951       .  S
O532        C533   1.264       .  A
O532       Co547   1.960       .  S
C533       C1541   1.459       .  S
C534       C1310   1.460       .  S
C535       C1133   1.495       .  S
C536       C1166   1.494       .  S
O537        C550   1.267       .  A
O537       Co545   1.966       .  S
O538        C551   1.266       .  A
O538       Co546   1.972       .  S
O539        C552   1.267       .  A
O539       Co547   2.017       .  S
O540        C553   1.267       .  A
O540       Co548   2.024       .  S
O541        C553   1.261       .  A
O541       Co546   1.980       .  S
O542        C552   1.265       .  A
O542       Co545   1.988       .  S
O543        C550   1.276       .  A
O543       Co548   2.025       .  S
O544        C551   1.276       .  A
O544       Co547   2.026       .  S
Co545       O549   2.115       .  S
Co546       O549   2.104       .  S
Co547       O549   2.102       .  S
Co548       O549   2.103       .  S
C550       C1085   1.473       .  S
C551       C1118   1.471       .  S
C552       C1262   1.496       .  S
C553       C1181   1.490       .  S
C554        C555   1.422       .  A
C554        C559   1.417       .  A
C554       C2453   1.499       .  S
C555        C556   1.424       .  A
C555       C3902   1.497       .  S
C556        C557   1.422       .  A
C556       C1037   1.503       .  S
C557        C558   1.418       .  A
C557       C1382   1.491       .  S
C558        C559   1.416       .  A
C558       C1190   1.499       .  S
C559       C1070   1.488       .  S
C560        C561   1.422       .  A
C560        C565   1.426       .  A
C560       C3629   1.506       .  S
C561        C562   1.418       .  A
C561        C989   1.489       .  S
C562        C563   1.415       .  A
C562       C1502   1.502       .  S
C563        C564   1.422       .  A
C563       C2846   1.492       .  S
C564        C565   1.427       .  A
C564       C1013   1.504       .  S
C565       C2597   1.501       .  S
O566        C574   1.268       .  A
O566       Co586   1.968   1_565  S
O567        C575   1.265       .  A
O567       Co587   1.957   1_545  S
O568        C576   1.266       .  A
O568       Co588   2.016       .  S
O569        C577   1.266       .  A
O569       Co589   2.013       .  S
O570        C576   1.260       .  A
O570       Co587   1.975       .  S
O571        C577   1.264       .  A
O571       Co586   1.981       .  S
O572        C575   1.275       .  A
O572       Co589   2.018       .  S
O573        C574   1.276       .  A
O573       Co588   2.022       .  S
C574       C3389   1.478       .  S
C575       C1277   1.465       .  S
C576       C2894   1.487       .  S
C577       C2030   1.493       .  S
O578        C591   1.276       .  A
O578       Co586   2.019       .  S
O579        C592   1.277       .  A
O579       Co587   2.028       .  S
O580        C593   1.263   1_565  A
O580       Co588   1.975       .  S
O581        C594   1.266   1_545  A
O581       Co589   1.986       .  S
O582        C594   1.267       .  A
O582       Co587   2.020       .  S
O583        C593   1.266       .  A
O583       Co586   2.018       .  S
O584        C591   1.268       .  A
O584       Co589   1.965       .  S
O585        C592   1.266       .  A
O585       Co588   1.962       .  S
Co586       O590   2.110   1_545  S
Co587       O590   2.100       .  S
Co588       O590   2.104       .  S
Co589       O590   2.104   1_545  S
C591       C3974   1.481       .  S
C592       C3485   1.472       .  S
C593       C4133   1.484       .  S
C594       C3710   1.496       .  S
O595        C603   1.267       .  A
O595       Co615   1.959       .  S
O596        C604   1.271       .  A
O596       Co616   1.972       .  S
O597        C605   1.263       .  A
O597       Co617   2.010       .  S
O598        C606   1.267       .  A
O598       Co618   2.025       .  S
O599        C605   1.264       .  A
O599       Co616   1.986       .  S
O600        C606   1.261       .  A
O600       Co615   1.980       .  S
O601        C604   1.278       .  A
O601       Co618   2.024       .  S
O602        C603   1.278       .  A
O602       Co617   2.028       .  S
C603       C2501   1.470       .  S
C604       C1094   1.479       .  S
C605        C965   1.488       .  S
C606        C950   1.495       .  S
O607        C620   1.279       .  A
O607       Co615   2.029       .  S
O608        C621   1.279       .  A
O608       Co616   2.031       .  S
O609        C622   1.261       .  A
O609       Co617   1.977       .  S
O610        C623   1.261       .  A
O610       Co618   1.985       .  S
O611        C623   1.264       .  A
O611       Co616   2.010       .  S
O612        C622   1.264       .  A
O612       Co615   2.018       .  S
O613        C620   1.263       .  A
O613       Co618   1.949       .  S
O614        C621   1.265       .  A
O614       Co617   1.953       .  S
Co615       O619   2.104       .  S
Co616       O619   2.104       .  S
Co617       O619   2.103       .  S
Co618       O619   2.100       .  S
C620       C1853   1.469       .  S
C621       C2357   1.464       .  S
C622       C2693   1.486       .  S
C623       C1061   1.486       .  S
C624        C625   1.422       .  A
C624        C629   1.419       .  A
C624       C3062   1.496       .  S
C625        C626   1.421   1_455  A
C625       C3605   1.494       .  S
C626        C627   1.421       .  A
C626       C2558   1.508       .  S
C627        C628   1.421       .  A
C627        C974   1.490       .  S
C628        C629   1.420   1_655  A
C628       C2438   1.496       .  S
C629        C926   1.502       .  S
O630        C638   1.271       .  A
O630       Co650   2.016       .  S
O631        C639   1.273       .  A
O631       Co651   2.023       .  S
O632        C640   1.264       .  A
O632       Co652   1.976       .  S
O633        C641   1.262       .  A
O633       Co653   1.970       .  S
O634        C640   1.270       .  A
O634       Co651   2.030       .  S
O635        C641   1.270       .  A
O635       Co650   2.030       .  S
O636        C639   1.261   1_554  A
O636       Co653   1.962       .  S
O637        C638   1.261   1_556  A
O637       Co652   1.960       .  S
C638       C3206   1.460       .  S
C639       C2774   1.462       .  S
C640       C1022   1.494       .  S
C641       C1229   1.490       .  S
O642        C655   1.266       .  A
O642       Co650   1.971       .  S
O643        C656   1.264       .  A
O643       Co651   1.967       .  S
O644        C657   1.272       .  A
O644       Co652   2.042       .  S
O645        C658   1.271       .  A
O645       Co653   2.033       .  S
O646        C658   1.262       .  A
O646       Co651   1.974   1_554  S
O647        C657   1.265       .  A
O647       Co650   1.977   1_556  S
O648        C655   1.273       .  A
O648       Co653   2.021       .  S
O649        C656   1.270       .  A
O649       Co652   2.006       .  S
Co650       O654   2.112       .  S
Co651       O654   2.104   1_556  S
Co652       O654   2.108   1_556  S
Co653       O654   2.112       .  S
C655       C1109   1.483       .  S
C656       C2525   1.466       .  S
C657        C878   1.493       .  S
C658        C893   1.496       .  S
C659        C660   1.420       .  A
C659        C664   1.426       .  A
C659       C1142   1.506       .  S
C660        C661   1.417   1_554  A
C660        C902   1.498       .  S
C661        C662   1.420       .  A
C661       C2813   1.492       .  S
C662        C663   1.425       .  A
C662        C845   1.497       .  S
C663        C664   1.428   1_556  A
C663       C2198   1.513       .  S
C664       C1358   1.493       .  S
O665        C673   1.265   1_554  A
O665       Co685   1.961       .  S
O666        C674   1.267       .  A
O666       Co686   1.967   1_554  S
O667        C675   1.266       .  A
O667       Co687   2.015       .  S
O668        C676   1.269       .  A
O668       Co688   2.035       .  S
O669        C675   1.266       .  A
O669       Co686   1.990       .  S
O670        C676   1.262       .  A
O670       Co685   1.980       .  S
O671        C674   1.273       .  A
O671       Co688   2.012       .  S
O672        C673   1.276       .  A
O672       Co687   2.021       .  S
C673       C4022   1.470       .  S
C674       C1325   1.470       .  S
C675       C2654   1.499       .  S
C676       C1046   1.500       .  S
O677        C690   1.276       .  A
O677       Co685   2.026       .  S
O678        C691   1.276       .  A
O678       Co686   2.023       .  S
O679        C692   1.264       .  A
O679       Co687   1.975   1_554  S
O680        C693   1.258       .  A
O680       Co688   1.965   1_556  S
O681        C693   1.268       .  A
O681       Co686   2.028       .  S
O682        C692   1.266       .  A
O682       Co685   2.019       .  S
O683        C690   1.258       .  A
O683       Co688   1.943       .  S
O684        C691   1.265       .  A
O684       Co687   1.967       .  S
Co685       O689   2.102       .  S
Co686       O689   2.112   1_556  S
Co687       O689   2.100   1_556  S
Co688       O689   2.099       .  S
C690       C3797   1.456       .  S
C691       C1445   1.467       .  S
C692       C4118   1.488       .  S
C693       C1397   1.482       .  S
O694        C702   1.275       .  A
O694       Co714   2.011       .  S
O695        C703   1.276       .  A
O695       Co715   2.011       .  S
O696        C704   1.266       .  A
O696       Co716   1.982       .  S
O697        C705   1.264       .  A
O697       Co717   1.981       .  S
O698        C704   1.269       .  A
O698       Co715   2.030       .  S
O699        C705   1.267       .  A
O699       Co714   2.025       .  S
O700        C703   1.269       .  A
O700       Co717   1.966       .  S
O701        C702   1.267       .  A
O701       Co716   1.960       .  S
C702       C2990   1.464       .  S
C703       C2093   1.474       .  S
C704       C2054   1.494       .  S
C705       C2909   1.496       .  S
O706        C719   1.264       .  A
O706       Co714   1.950       .  S
O707        C720   1.265       .  A
O707       Co715   1.961       .  S
O708        C721   1.267       .  A
O708       Co716   2.021       .  S
O709        C722   1.264       .  A
O709       Co717   2.012       .  S
O710        C722   1.267       .  A
O710       Co715   1.994       .  S
O711        C721   1.264       .  A
O711       Co714   1.985       .  S
O712        C719   1.278       .  A
O712       Co717   2.027       .  S
O713        C720   1.275       .  A
O713       Co716   2.012       .  S
Co714       O718   2.098       .  S
Co715       O718   2.098       .  S
Co716       O718   2.104       .  S
Co717       O718   2.099       .  S
C719       C2798   1.462       .  S
C720       C1934   1.459       .  S
C721        C821   1.498       .  S
C722        C854   1.497       .  S
O723        C731   1.274       .  A
O723       Co743   2.013       .  S
O724        C732   1.274       .  A
O724       Co744   2.019       .  S
O725        C733   1.265       .  A
O725       Co745   1.981       .  S
O726        C734   1.264       .  A
O726       Co746   1.980       .  S
O727        C733   1.270       .  A
O727       Co744   2.034       .  S
O728        C734   1.269       .  A
O728       Co743   2.026       .  S
O729        C732   1.263       .  A
O729       Co746   1.962       .  S
O730        C731   1.266       .  A
O730       Co745   1.964       .  S
C731       C3821   1.471       .  S
C732       C1478   1.463       .  S
C733       C1646   1.499       .  S
C734       C3653   1.494       .  S
O735        C748   1.265       .  A
O735       Co743   1.962       .  S
O736        C749   1.260       .  A
O736       Co744   1.956       .  S
O737        C750   1.269       .  A
O737       Co745   2.025       .  S
O738        C751   1.268       .  A
O738       Co746   2.031       .  S
O739        C751   1.259       .  A
O739       Co744   1.968       .  S
O740        C750   1.264       .  A
O740       Co743   1.981       .  S
O741        C748   1.275       .  A
O741       Co746   2.018       .  S
O742        C749   1.274       .  A
O742       Co745   2.019       .  S
Co743       O747   2.099       .  S
Co744       O747   2.099       .  S
Co745       O747   2.106       .  S
Co746       O747   2.103       .  S
C748       C3557   1.467       .  S
C749       C1574   1.460       .  S
C750       C1214   1.498       .  S
C751        C998   1.477       .  S
O752        C760   1.266       .  A
O752       Co772   1.966       .  S
O753        C761   1.263       .  A
O753       Co773   1.960       .  S
O754        C762   1.271       .  A
O754       Co774   2.033       .  S
O755        C763   1.267       .  A
O755       Co775   2.013       .  S
O756        C762   1.265       .  A
O756       Co773   1.985       .  S
O757        C763   1.268       .  A
O757       Co772   1.989       .  S
O758        C761   1.274       .  A
O758       Co775   2.024       .  S
O759        C760   1.274       .  A
O759       Co774   2.011       .  S
C760       C3230   1.476       .  S
C761       C2405   1.461       .  S
C762        C806   1.502       .  S
C763        C917   1.498       .  S
O764        C777   1.270       .  A
O764       Co772   2.001       .  S
O765        C778   1.272       .  A
O765       Co773   2.014       .  S
O766        C779   1.263       .  A
O766       Co774   1.971       .  S
O767        C780   1.264       .  A
O767       Co775   1.975       .  S
O768        C780   1.271       .  A
O768       Co773   2.033       .  S
O769        C779   1.271       .  A
O769       Co772   2.038       .  S
O770        C777   1.268       .  A
O770       Co775   1.973       .  S
O771        C778   1.262       .  A
O771       Co774   1.961       .  S
Co772       O776   2.107       .  S
Co773       O776   2.106       .  S
Co774       O776   2.100       .  S
Co775       O776   2.105       .  S
C777       C2957   1.474       .  S
C778       C2126   1.461       .  S
C779       C3149   1.494       .  S
C780       C2237   1.497       .  S
C781        C782   1.425       .  A
C781        C786   1.429       .  A
C781       C1157   1.504       .  S
C782        C783   1.424       .  A
C782       C1589   1.509       .  S
C783        C784   1.423       .  A
C783       C3038   1.499       .  S
C784        C785   1.422       .  A
C784        C830   1.503       .  S
C785        C786   1.424       .  A
C785       C1949   1.503       .  S
C786        C941   1.500       .  S
C787        C788   1.432       .  A
C787        C792   1.436   1_455  A
C787        C797   1.508       .  S
C788        C789   1.427   1_554  A
C788       C2174   1.509       .  S
C789        C790   1.423   1_455  A
C789       C4061   1.511       .  S
C790        C791   1.422       .  A
C790       C2582   1.497       .  S
C791        C792   1.428   1_556  A
C791        C869   1.508       .  S
C792       C3254   1.510       .  S
C793        C794   1.411       .  A
C793        C798   1.414       .  A
C793        H803   1.083       .  S
C794        C795   1.412       .  A
C794        C799   1.507       .  S
C795        C796   1.403       .  A
C795        O800   1.371       .  S
C796        C797   1.406       .  A
C796        H801   1.084       .  S
C797        C798   1.412       .  A
C798        O802   1.373       .  S
C799        C804   1.411       .  A
C799        C808   1.410       .  A
O800        H816   0.992       .  S
O802        H813   0.992       .  S
C804        C805   1.406       .  A
C804        O809   1.372       .  S
C805        C806   1.411       .  A
C805        H810   1.083       .  S
C806        C807   1.412       .  A
C807        C808   1.409       .  A
C807        O811   1.371       .  S
C808        H812   1.083       .  S
O809        H814   0.992       .  S
O811        H815   0.992       .  S
C817        C818   1.410       .  A
C817        C822   1.408       .  A
C817        H827   1.083       .  S
C818        C819   1.411       .  A
C818        C823   1.504       .  S
C819        C820   1.404       .  A
C819        O824   1.372       .  S
C820        C821   1.410       .  A
C820        H825   1.083       .  S
C821        C822   1.412       .  A
C822        O826   1.371       .  S
C823        C828   1.411       .  A
C823        C832   1.410       .  A
O824        H840   0.992       .  S
O826        H837   0.992       .  S
C828        C829   1.403       .  A
C828        O833   1.372       .  S
C829        C830   1.405       .  A
C829        H834   1.084       .  S
C830        C831   1.411       .  A
C831        C832   1.411       .  A
C831        O835   1.373       .  S
C832        H836   1.083       .  S
O833        H838   0.992       .  S
O835        H839   0.992       .  S
C841        C842   1.406       .  A
C841        C846   1.402       .  A
C841        H851   1.083       .  S
C842        C843   1.416       .  A
C842        C847   1.501       .  S
C843        C844   1.408       .  A
C843        O848   1.371       .  S
C844        C845   1.404       .  A
C844        H849   1.083       .  S
C845        C846   1.407       .  A
C846        O850   1.372       .  S
C847        C852   1.415       .  A
C847        C856   1.403       .  A
O848        H864   0.992       .  S
O850        H861   0.991       .  S
C852        C853   1.407       .  A
C852        O857   1.371       .  S
C853        C854   1.405       .  A
C853        H858   1.083       .  S
C854        C855   1.418       .  A
C855        C856   1.402       .  A
C855        O859   1.372       .  S
C856        H860   1.083       .  S
O857        H862   0.992       .  S
O859        H863   0.992       .  S
C865        C866   1.409   1_554  A
C865        C870   1.405       .  A
C865        H875   1.083       .  S
C866        C867   1.417       .  A
C866        C871   1.512       .  S
C867        C868   1.415       .  A
C867        O872   1.372       .  S
C868        C869   1.407       .  A
C868        H873   1.083       .  S
C869        C870   1.408   1_556  A
C870        O874   1.371       .  S
C871        C876   1.418       .  A
C871        C880   1.408   1_556  A
O872        H888   0.992       .  S
O874        H885   0.992       .  S
C876        C877   1.414       .  A
C876        O881   1.371       .  S
C877        C878   1.406       .  A
C877        H882   1.084       .  S
C878        C879   1.409   1_556  A
C879        C880   1.405       .  A
C879        O883   1.372       .  S
C880        H884   1.083       .  S
O881        H886   0.992       .  S
O883        H887   0.991       .  S
C889        C890   1.409       .  A
C889        C894   1.407       .  A
C889        H899   1.082       .  S
C890        C891   1.413       .  A
C890        C895   1.505       .  S
C891        C892   1.405       .  A
C891        O896   1.372       .  S
C892        C893   1.409       .  A
C892        H897   1.083       .  S
C893        C894   1.411       .  A
C894        O898   1.371       .  S
C895        C900   1.413   1_554  A
C895        C904   1.412       .  A
O896        H912   0.992       .  S
O898        H909   0.993   1_554  S
C900        C901   1.403       .  A
C900        O905   1.373       .  S
C901        C902   1.403   1_556  A
C901        H906   1.083       .  S
C902        C903   1.407       .  A
C903        C904   1.408       .  A
C903        O907   1.371       .  S
C904        H908   1.083       .  S
O905        H910   0.992       .  S
O907        H911   0.992       .  S
C913        C914   1.401       .  A
C913        C918   1.402       .  A
C913        H923   1.083       .  S
C914        C915   1.414       .  A
C914        C919   1.497       .  S
C915        C916   1.407       .  A
C915        O920   1.371       .  S
C916        C917   1.406       .  A
C916        H921   1.083       .  S
C917        C918   1.420       .  A
C918        O922   1.372       .  S
C919        C924   1.414       .  A
C919        C928   1.404       .  A
O920        H936   0.991       .  S
O922        H933   0.992       .  S
C924        C925   1.409       .  A
C924        O929   1.372       .  S
C925        C926   1.406       .  A
C925        H930   1.083       .  S
C926        C927   1.412       .  A
C927        C928   1.400       .  A
C927        O931   1.372       .  S
C928        H932   1.083       .  S
O929        H934   0.991       .  S
O931        H935   0.991   1_455  S
C937        C938   1.409       .  A
C937        C942   1.410       .  A
C937        H947   1.083       .  S
C938        C939   1.409       .  A
C938        C943   1.496       .  S
C939        C940   1.402       .  A
C939        O944   1.372       .  S
C940        C941   1.407       .  A
C940        H945   1.084       .  S
C941        C942   1.409       .  A
C942        O946   1.372       .  S
C943        C948   1.408       .  A
C943        C952   1.408       .  A
O944        H960   0.992       .  S
O946        H957   0.992       .  S
C948        C949   1.404       .  A
C948        O953   1.372       .  S
C949        C950   1.409       .  A
C949        H954   1.083       .  S
C950        C951   1.411       .  A
C951        C952   1.408       .  A
C951        O955   1.371       .  S
C952        H956   1.083       .  S
O953        H958   0.992       .  S
O955        H959   0.992       .  S
C961        C962   1.401       .  A
C961        C966   1.401       .  A
C961        H971   1.084       .  S
C962        C963   1.412       .  A
C962        C967   1.489       .  S
C963        C964   1.405       .  A
C963        O968   1.371       .  S
C964        C965   1.404       .  A
C964        H969   1.083       .  S
C965        C966   1.417       .  A
C966        O970   1.373       .  S
C967        C972   1.413       .  A
C967        C976   1.402       .  A
O968        H984   0.992       .  S
O970        H981   0.992       .  S
C972        C973   1.405       .  A
C972        O977   1.371       .  S
C973        C974   1.403       .  A
C973        H978   1.083       .  S
C974        C975   1.409       .  A
C975        C976   1.400       .  A
C975        O979   1.373       .  S
C976        H980   1.084       .  S
O977        H982   0.991       .  S
O979        H983   0.991       .  S
C985        C986   1.406       .  A
C985        C990   1.399       .  A
C985        H995   1.084       .  S
C986        C987   1.414       .  A
C986        C991   1.496       .  S
C987        C988   1.409       .  A
C987        O992   1.372       .  S
C988        C989   1.402       .  A
C988        H993   1.082       .  S
C989        C990   1.407       .  A
C990        O994   1.372       .  S
C991        C996   1.414       .  A
C991       C1000   1.406       .  A
O992       H1008   0.992       .  S
O994       H1005   0.991       .  S
C996        C997   1.411       .  A
C996       O1001   1.373       .  S
C997        C998   1.403       .  A
C997       H1002   1.084       .  S
C998        C999   1.406       .  A
C999       C1000   1.399       .  A
C999       O1003   1.372       .  S
C1000      H1004   1.084       .  S
O1001      H1006   0.992       .  S
O1003      H1007   0.991       .  S
C1009      C1010   1.411       .  A
C1009      C1014   1.410       .  A
C1009      H1019   1.082       .  S
C1010      C1011   1.412       .  A
C1010      C1015   1.504       .  S
C1011      C1012   1.401       .  A
C1011      O1016   1.372       .  S
C1012      C1013   1.406       .  A
C1012      H1017   1.084       .  S
C1013      C1014   1.410       .  A
C1014      O1018   1.372       .  S
C1015      C1020   1.412       .  A
C1015      C1024   1.409       .  A
O1016      H1032   0.992       .  S
O1018      H1029   0.991       .  S
C1020      C1021   1.407       .  A
C1020      O1025   1.372       .  S
C1021      C1022   1.408       .  A
C1021      H1026   1.084       .  S
C1022      C1023   1.410       .  A
C1023      C1024   1.404       .  A
C1023      O1027   1.371       .  S
C1024      H1028   1.083       .  S
O1025      H1030   0.992       .  S
O1027      H1031   0.992       .  S
C1033      C1034   1.405       .  A
C1033      C1038   1.401       .  A
C1033      H1043   1.083       .  S
C1034      C1035   1.414       .  A
C1034      C1039   1.500       .  S
C1035      C1036   1.410       .  A
C1035      O1040   1.371       .  S
C1036      C1037   1.406       .  A
C1036      H1041   1.083       .  S
C1037      C1038   1.410       .  A
C1038      O1042   1.371       .  S
C1039      C1044   1.412       .  A
C1039      C1048   1.404       .  A
O1040      H1056   0.992       .  S
O1042      H1053   0.991       .  S
C1044      C1045   1.409       .  A
C1044      O1049   1.372       .  S
C1045      C1046   1.407       .  A
C1045      H1050   1.083       .  S
C1046      C1047   1.417       .  A
C1047      C1048   1.406       .  A
C1047      O1051   1.371       .  S
C1048      H1052   1.083       .  S
O1049      H1054   0.992       .  S
O1051      H1055   0.992       .  S
C1057      C1058   1.402       .  A
C1057      C1062   1.396       .  A
C1057      H1067   1.084       .  S
C1058      C1059   1.415       .  A
C1058      C1063   1.494       .  S
C1059      C1060   1.411       .  A
C1059      O1064   1.373       .  S
C1060      C1061   1.405       .  A
C1060      H1065   1.084       .  S
C1061      C1062   1.412       .  A
C1062      O1066   1.372       .  S
C1063      C1068   1.411       .  A
C1063      C1072   1.410       .  A
O1064      H1080   0.992       .  S
O1066      H1077   0.992       .  S
C1068      C1069   1.400       .  A
C1068      O1073   1.371       .  S
C1069      C1070   1.403       .  A
C1069      H1074   1.084       .  S
C1070      C1071   1.404       .  A
C1071      C1072   1.403       .  A
C1071      O1075   1.370       .  S
C1072      H1076   1.083       .  S
O1073      H1078   0.992       .  S
O1075      H1079   0.991       .  S
C1081      C1082   1.406       .  A
C1081      C1086   1.406       .  A
C1081      H1091   1.083       .  S
C1082      C1083   1.412       .  A
C1082      C1087   1.488       .  S
C1083      C1084   1.394       .  A
C1083      O1088   1.372       .  S
C1084      C1085   1.399       .  A
C1084      H1089   1.082       .  S
C1085      C1086   1.410       .  A
C1086      O1090   1.371       .  S
C1087      C1092   1.410       .  A
C1087      C1096   1.402       .  A
O1088      H1104   0.991       .  S
O1090      H1101   0.992       .  S
C1092      C1093   1.408       .  A
C1092      O1097   1.371       .  S
C1093      C1094   1.407       .  A
C1093      H1098   1.083       .  S
C1094      C1095   1.409       .  A
C1095      C1096   1.395       .  A
C1095      O1099   1.373       .  S
C1096      H1100   1.084       .  S
O1097      H1102   0.992       .  S
O1099      H1103   0.992       .  S
C1105      C1106   1.401       .  A
C1105      C1110   1.396       .  A
C1105      H1115   1.084       .  S
C1106      C1107   1.411       .  A
C1106      C1111   1.484       .  S
C1107      C1108   1.404       .  A
C1107      O1112   1.371       .  S
C1108      C1109   1.405       .  A
C1108      H1113   1.083       .  S
C1109      C1110   1.414       .  A
C1110      O1114   1.372       .  S
C1111      C1116   1.413       .  A
C1111      C1120   1.401       .  A
O1112      H1128   0.991       .  S
O1114      H1125   0.992       .  S
C1116      C1117   1.404       .  A
C1116      O1121   1.371       .  S
C1117      C1118   1.401       .  A
C1117      H1122   1.083       .  S
C1118      C1119   1.408       .  A
C1119      C1120   1.396       .  A
C1119      O1123   1.373       .  S
C1120      H1124   1.084       .  S
O1121      H1126   0.992       .  S
O1123      H1127   0.991       .  S
C1129      C1130   1.407       .  A
C1129      C1134   1.408       .  A
C1129      H1139   1.083       .  S
C1130      C1131   1.415       .  A
C1130      C1135   1.505       .  S
C1131      C1132   1.405       .  A
C1131      O1136   1.371       .  S
C1132      C1133   1.405       .  A
C1132      H1137   1.083       .  S
C1133      C1134   1.413       .  A
C1134      O1138   1.372       .  S
C1135      C1140   1.416       .  A
C1135      C1144   1.405       .  A
O1136      H1152   0.992       .  S
O1138      H1149   0.992       .  S
C1140      C1141   1.410       .  A
C1140      O1145   1.371       .  S
C1141      C1142   1.407       .  A
C1141      H1146   1.083       .  S
C1142      C1143   1.410       .  A
C1143      C1144   1.405       .  A
C1143      O1147   1.374       .  S
C1144      H1148   1.083       .  S
O1145      H1150   0.992       .  S
O1147      H1151   0.992       .  S
C1153      C1154   1.411       .  A
C1153      C1158   1.409       .  A
C1153      H1163   1.082       .  S
C1154      C1155   1.411       .  A
C1154      C1159   1.503       .  S
C1155      C1156   1.402       .  A
C1155      O1160   1.371       .  S
C1156      C1157   1.407       .  A
C1156      H1161   1.084       .  S
C1157      C1158   1.410       .  A
C1158      O1162   1.371       .  S
C1159      C1164   1.412       .  A
C1159      C1168   1.408       .  A
O1160      H1176   0.992       .  S
O1162      H1173   0.991       .  S
C1164      C1165   1.409       .  A
C1164      O1169   1.372       .  S
C1165      C1166   1.406       .  A
C1165      H1170   1.083       .  S
C1166      C1167   1.413       .  A
C1167      C1168   1.405       .  A
C1167      O1171   1.372       .  S
C1168      H1172   1.083       .  S
O1169      H1174   0.992       .  S
O1171      H1175   0.992       .  S
C1177      C1178   1.410       .  A
C1177      C1182   1.408       .  A
C1177      H1187   1.083       .  S
C1178      C1179   1.412       .  A
C1178      C1183   1.503       .  S
C1179      C1180   1.403       .  A
C1179      O1184   1.372       .  S
C1180      C1181   1.407       .  A
C1180      H1185   1.083       .  S
C1181      C1182   1.409       .  A
C1182      O1186   1.371       .  S
C1183      C1188   1.412       .  A
C1183      C1192   1.410       .  A
O1184      H1200   0.992       .  S
O1186      H1197   0.991       .  S
C1188      C1189   1.404       .  A
C1188      O1193   1.372       .  S
C1189      C1190   1.403       .  A
C1189      H1194   1.084       .  S
C1190      C1191   1.408       .  A
C1191      C1192   1.410       .  A
C1191      O1195   1.372       .  S
C1192      H1196   1.083       .  S
O1193      H1198   0.992       .  S
O1195      H1199   0.991       .  S
C1201      C1202   1.406       .  A
C1201      C1206   1.404       .  A
C1201      H1211   1.083       .  S
C1202      C1203   1.415       .  A
C1202      C1207   1.502       .  S
C1203      C1204   1.408       .  A
C1203      O1208   1.371       .  S
C1204      C1205   1.405       .  A
C1204      H1209   1.083       .  S
C1205      C1206   1.410       .  A
C1206      O1210   1.373       .  S
C1207      C1212   1.414       .  A
C1207      C1216   1.404       .  A
O1208      H1224   0.992       .  S
O1210      H1221   0.992       .  S
C1212      C1213   1.409       .  A
C1212      O1217   1.372       .  S
C1213      C1214   1.406       .  A
C1213      H1218   1.083       .  S
C1214      C1215   1.417       .  A
C1215      C1216   1.404       .  A
C1215      O1219   1.372       .  S
C1216      H1220   1.083       .  S
O1217      H1222   0.992       .  S
O1219      H1223   0.992       .  S
C1225      C1226   1.407       .  A
C1225      C1230   1.404       .  A
C1225      H1235   1.083       .  S
C1226      C1227   1.412       .  A
C1226      C1231   1.498       .  S
C1227      C1228   1.405       .  A
C1227      O1232   1.371       .  S
C1228      C1229   1.406       .  A
C1228      H1233   1.084       .  S
C1229      C1230   1.412       .  A
C1230      O1234   1.372       .  S
C1231      C1236   1.410       .  A
C1231      C1240   1.409       .  A
O1232      H1248   0.992       .  S
O1234      H1245   0.991       .  S
C1236      C1237   1.401       .  A
C1236      O1241   1.372       .  S
C1237      C1238   1.407       .  A
C1237      H1242   1.084       .  S
C1238      C1239   1.411       .  A
C1239      C1240   1.410       .  A
C1239      O1243   1.373       .  S
C1240      H1244   1.083       .  S
O1241      H1246   0.992       .  S
O1243      H1247   0.991       .  S
C1249      C1250   1.410       .  A
C1249      C1254   1.409       .  A
C1249      H1259   1.083       .  S
C1250      C1251   1.411       .  A
C1250      C1255   1.500       .  S
C1251      C1252   1.401       .  A
C1251      O1256   1.371       .  S
C1252      C1253   1.405       .  A
C1252      H1257   1.084       .  S
C1253      C1254   1.410       .  A
C1254      O1258   1.373       .  S
C1255      C1260   1.410       .  A
C1255      C1264   1.410       .  A
O1256      H1272   0.992       .  S
O1258      H1269   0.992       .  S
C1260      C1261   1.401       .  A
C1260      O1265   1.372       .  S
C1261      C1262   1.410       .  A
C1261      H1266   1.083       .  S
C1262      C1263   1.411       .  A
C1263      C1264   1.409       .  A
C1263      O1267   1.371       .  S
C1264      H1268   1.083       .  S
O1265      H1270   0.992       .  S
O1267      H1271   0.991       .  S
C1273      C1274   1.400       .  A
C1273      C1278   1.390       .  A
C1273      H1283   1.084       .  S
C1274      C1275   1.406       .  A
C1274      C1279   1.470       .  S
C1275      C1276   1.401       .  A
C1275      O1280   1.371   1_545  S
C1276      C1277   1.406       .  A
C1276      H1281   1.084   1_545  S
C1277      C1278   1.404       .  A
C1278      O1282   1.371       .  S
C1279      C1284   1.408       .  A
C1279      C1288   1.401       .  A
O1280      H1296   0.992       .  S
O1282      H1293   0.992       .  S
C1284      C1285   1.393       .  A
C1284      O1289   1.374       .  S
C1285      C1286   1.399       .  A
C1285      H1290   1.081       .  S
C1286      C1287   1.408       .  A
C1287      C1288   1.398       .  A
C1287      O1291   1.371       .  S
C1288      H1292   1.084       .  S
O1289      H1294   0.992       .  S
O1291      H1295   0.991       .  S
C1297      C1298   1.403       .  A
C1297      C1302   1.405       .  A
C1297      H1307   1.083       .  S
C1298      C1299   1.403       .  A
C1298      C1303   1.471       .  S
C1299      C1300   1.389       .  A
C1299      O1304   1.374       .  S
C1300      C1301   1.404       .  A
C1300      H1305   1.082       .  S
C1301      C1302   1.412       .  A
C1302      O1306   1.371       .  S
C1303      C1308   1.409       .  A
C1303      C1312   1.400       .  A
O1304      H1320   0.992       .  S
O1306      H1317   0.991       .  S
C1308      C1309   1.398       .  A
C1308      O1313   1.374       .  S
C1309      C1310   1.397       .  A
C1309      H1314   1.081       .  S
C1310      C1311   1.407       .  A
C1311      C1312   1.398       .  A
C1311      O1315   1.371       .  S
C1312      H1316   1.084       .  S
O1313      H1318   0.992       .  S
O1315      H1319   0.992       .  S
C1321      C1322   1.401       .  A
C1321      C1326   1.390       .  A
C1321      H1331   1.084       .  S
C1322      C1323   1.408       .  A
C1322      C1327   1.477       .  S
C1323      C1324   1.403       .  A
C1323      O1328   1.371       .  S
C1324      C1325   1.405       .  A
C1324      H1329   1.084   1_554  S
C1325      C1326   1.408       .  A
C1326      O1330   1.371       .  S
C1327      C1332   1.410       .  A
C1327      C1336   1.403       .  A
O1328      H1344   0.992   1_554  S
O1330      H1341   0.992       .  S
C1332      C1333   1.392       .  A
C1332      O1337   1.372       .  S
C1333      C1334   1.399       .  A
C1333      H1338   1.082       .  S
C1334      C1335   1.408       .  A
C1335      C1336   1.400       .  A
C1335      O1339   1.371       .  S
C1336      H1340   1.083       .  S
O1337      H1342   0.992       .  S
O1339      H1343   0.991       .  S
C1345      C1346   1.401       .  A
C1345      C1350   1.401       .  A
C1345      H1355   1.084       .  S
C1346      C1347   1.411       .  A
C1346      C1351   1.487       .  S
C1347      C1348   1.406       .  A
C1347      O1352   1.371       .  S
C1348      C1349   1.405       .  A
C1348      H1353   1.083       .  S
C1349      C1350   1.415       .  A
C1350      O1354   1.372       .  S
C1351      C1356   1.411       .  A
C1351      C1360   1.402       .  A
O1352      H1368   0.992       .  S
O1354      H1365   0.991       .  S
C1356      C1357   1.405       .  A
C1356      O1361   1.371       .  S
C1357      C1358   1.404       .  A
C1357      H1362   1.083       .  S
C1358      C1359   1.411       .  A
C1359      C1360   1.400       .  A
C1359      O1363   1.372       .  S
C1360      H1364   1.084       .  S
O1361      H1366   0.991       .  S
O1363      H1367   0.992   1_554  S
C1369      C1370   1.408       .  A
C1369      C1374   1.403       .  A
C1369      H1379   1.083       .  S
C1370      C1371   1.411       .  A
C1370      C1375   1.495       .  S
C1371      C1372   1.402       .  A
C1371      O1376   1.371       .  S
C1372      C1373   1.404       .  A
C1372      H1377   1.081       .  S
C1373      C1374   1.409       .  A
C1374      O1378   1.372       .  S
C1375      C1380   1.410       .  A
C1375      C1384   1.410       .  A
O1376      H1392   0.992       .  S
O1378      H1389   0.992       .  S
C1380      C1381   1.399       .  A
C1380      O1385   1.372       .  S
C1381      C1382   1.403       .  A
C1381      H1386   1.083       .  S
C1382      C1383   1.406       .  A
C1383      C1384   1.405       .  A
C1383      O1387   1.371       .  S
C1384      H1388   1.083       .  S
O1385      H1390   0.991       .  S
O1387      H1391   0.991       .  S
C1393      C1394   1.408       .  A
C1393      C1398   1.406       .  A
C1393      H1403   1.083       .  S
C1394      C1395   1.413   1_556  A
C1394      C1399   1.497       .  S
C1395      C1396   1.401       .  A
C1395      O1400   1.372       .  S
C1396      C1397   1.403   1_554  A
C1396      H1401   1.084       .  S
C1397      C1398   1.408       .  A
C1398      O1402   1.371       .  S
C1399      C1404   1.415       .  A
C1399      C1408   1.405       .  A
O1400      H1416   0.992       .  S
O1402      H1413   0.991       .  S
C1404      C1405   1.407       .  A
C1404      O1409   1.371       .  S
C1405      C1406   1.403       .  A
C1405      H1410   1.083       .  S
C1406      C1407   1.409       .  A
C1407      C1408   1.399       .  A
C1407      O1411   1.372   1_546  S
C1408      H1412   1.083   1_556  S
O1409      H1414   0.992       .  S
O1411      H1415   0.992       .  S
C1417      C1418   1.403       .  A
C1417      C1422   1.399       .  A
C1417      H1427   1.083       .  S
C1418      C1419   1.414       .  A
C1418      C1423   1.491       .  S
C1419      C1420   1.404       .  A
C1419      O1424   1.371       .  S
C1420      C1421   1.403       .  A
C1420      H1425   1.083       .  S
C1421      C1422   1.410       .  A
C1422      O1426   1.372       .  S
C1423      C1428   1.413       .  A
C1423      C1432   1.400       .  A
O1424      H1440   0.992       .  S
O1426      H1437   0.991   1_554  S
C1428      C1429   1.406       .  A
C1428      O1433   1.371       .  S
C1429      C1430   1.406       .  A
C1429      H1434   1.083       .  S
C1430      C1431   1.418       .  A
C1431      C1432   1.397       .  A
C1431      O1435   1.372       .  S
C1432      H1436   1.084       .  S
O1433      H1438   0.991       .  S
O1435      H1439   0.992       .  S
C1441      C1442   1.408       .  A
C1441      C1446   1.402       .  A
C1441      H1451   1.084       .  S
C1442      C1443   1.404       .  A
C1442      C1447   1.474       .  S
C1443      C1444   1.394       .  A
C1443      O1448   1.372       .  S
C1444      C1445   1.402       .  A
C1444      H1449   1.084       .  S
C1445      C1446   1.405       .  A
C1446      O1450   1.372       .  S
C1447      C1452   1.409       .  A
C1447      C1456   1.396       .  A
O1448      H1464   0.992       .  S
O1450      H1461   0.992       .  S
C1452      C1453   1.406       .  A
C1452      O1457   1.372       .  S
C1453      C1454   1.405       .  A
C1453      H1458   1.083       .  S
C1454      C1455   1.413       .  A
C1455      C1456   1.391       .  A
C1455      O1459   1.372       .  S
C1456      H1460   1.084       .  S
O1457      H1462   0.992       .  S
O1459      H1463   0.990       .  S
C1465      C1466   1.404       .  A
C1465      C1470   1.403       .  A
C1465      H1475   1.083       .  S
C1466      C1467   1.402       .  A
C1466      C1471   1.468       .  S
C1467      C1468   1.390       .  A
C1467      O1472   1.373       .  S
C1468      C1469   1.406       .  A
C1468      H1473   1.083       .  S
C1469      C1470   1.408       .  A
C1470      O1474   1.371       .  S
C1471      C1476   1.408       .  A
C1471      C1480   1.398       .  A
O1472      H1488   0.992       .  S
O1474      H1485   0.992   1_565  S
C1476      C1477   1.402       .  A
C1476      O1481   1.372       .  S
C1477      C1478   1.402       .  A
C1477      H1482   1.084       .  S
C1478      C1479   1.408       .  A
C1479      C1480   1.391       .  A
C1479      O1483   1.372       .  S
C1480      H1484   1.084       .  S
O1481      H1486   0.992       .  S
O1483      H1487   0.992       .  S
C1489      C1490   1.409       .  A
C1489      C1494   1.409       .  A
C1489      H1499   1.083       .  S
C1490      C1491   1.416       .  A
C1490      C1495   1.507       .  S
C1491      C1492   1.407       .  A
C1491      O1496   1.372       .  S
C1492      C1493   1.404       .  A
C1492      H1497   1.084       .  S
C1493      C1494   1.410       .  A
C1494      O1498   1.371       .  S
C1495      C1500   1.416       .  A
C1495      C1504   1.407       .  A
O1496      H1512   0.992       .  S
O1498      H1509   0.992       .  S
C1500      C1501   1.412       .  A
C1500      O1505   1.372       .  S
C1501      C1502   1.404       .  A
C1501      H1506   1.083       .  S
C1502      C1503   1.409       .  A
C1503      C1504   1.406       .  A
C1503      O1507   1.373       .  S
C1504      H1508   1.083       .  S
O1505      H1510   0.992       .  S
O1507      H1511   0.991       .  S
C1513      C1514   1.411       .  A
C1513      C1518   1.409       .  A
C1513      H1523   1.083       .  S
C1514      C1515   1.410       .  A
C1514      C1519   1.502       .  S
C1515      C1516   1.401       .  A
C1515      O1520   1.372       .  S
C1516      C1517   1.409       .  A
C1516      H1521   1.083       .  S
C1517      C1518   1.411       .  A
C1518      O1522   1.371       .  S
C1519      C1524   1.411   1_565  A
C1519      C1528   1.411       .  A
O1520      H1536   0.992       .  S
O1522      H1533   0.992   1_565  S
C1524      C1525   1.401       .  A
C1524      O1529   1.372       .  S
C1525      C1526   1.403   1_545  A
C1525      H1530   1.084       .  S
C1526      C1527   1.409       .  A
C1527      C1528   1.410       .  A
C1527      O1531   1.373       .  S
C1528      H1532   1.083       .  S
O1529      H1534   0.992       .  S
O1531      H1535   0.992       .  S
C1537      C1538   1.404       .  A
C1537      C1542   1.399       .  A
C1537      H1547   1.084       .  S
C1538      C1539   1.402       .  A
C1538      C1543   1.463       .  S
C1539      C1540   1.391       .  A
C1539      O1544   1.372       .  S
C1540      C1541   1.402       .  A
C1540      H1545   1.083       .  S
C1541      C1542   1.404       .  A
C1542      O1546   1.372       .  S
C1543      C1548   1.404       .  A
C1543      C1552   1.395       .  A
O1544      H1560   0.991       .  S
O1546      H1557   0.992       .  S
C1548      C1549   1.399       .  A
C1548      O1553   1.371       .  S
C1549      C1550   1.406       .  A
C1549      H1554   1.083       .  S
C1550      C1551   1.415       .  A
C1551      C1552   1.388       .  A
C1551      O1555   1.372       .  S
C1552      H1556   1.085       .  S
O1553      H1558   0.991       .  S
O1555      H1559   0.992       .  S
C1561      C1562   1.395       .  A
C1561      C1566   1.387       .  A
C1561      H1571   1.085       .  S
C1562      C1563   1.406       .  A
C1562      C1567   1.465       .  S
C1563      C1564   1.401       .  A
C1563      O1568   1.371       .  S
C1564      C1565   1.405       .  A
C1564      H1569   1.083       .  S
C1565      C1566   1.418       .  A
C1566      O1570   1.373       .  S
C1567      C1572   1.409       .  A
C1567      C1576   1.397       .  A
O1568      H1584   0.992       .  S
O1570      H1581   0.992       .  S
C1572      C1573   1.399       .  A
C1572      O1577   1.371       .  S
C1573      C1574   1.401       .  A
C1573      H1578   1.084       .  S
C1574      C1575   1.407       .  A
C1575      C1576   1.391       .  A
C1575      O1579   1.373       .  S
C1576      H1580   1.084       .  S
O1577      H1582   0.992       .  S
O1579      H1583   0.992       .  S
C1585      C1586   1.408       .  A
C1585      C1590   1.405       .  A
C1585      H1595   1.083       .  S
C1586      C1587   1.418       .  A
C1586      C1591   1.511       .  S
C1587      C1588   1.410       .  A
C1587      O1592   1.371       .  S
C1588      C1589   1.407       .  A
C1588      H1593   1.083       .  S
C1589      C1590   1.410       .  A
C1590      O1594   1.371       .  S
C1591      C1596   1.418       .  A
C1591      C1600   1.404       .  A
O1592      H1608   0.992       .  S
O1594      H1605   0.992       .  S
C1596      C1597   1.412       .  A
C1596      O1601   1.371       .  S
C1597      C1598   1.408       .  A
C1597      H1602   1.083       .  S
C1598      C1599   1.420       .  A
C1599      C1600   1.405       .  A
C1599      O1603   1.372       .  S
C1600      H1604   1.083       .  S
O1601      H1606   0.992       .  S
O1603      H1607   0.991       .  S
C1609      C1610   1.408       .  A
C1609      C1614   1.409       .  A
C1609      H1619   1.083       .  S
C1610      C1611   1.416       .  A
C1610      C1615   1.507       .  S
C1611      C1612   1.404       .  A
C1611      O1616   1.372       .  S
C1612      C1613   1.404       .  A
C1612      H1617   1.083       .  S
C1613      C1614   1.413       .  A
C1614      O1618   1.372       .  S
C1615      C1620   1.418       .  A
C1615      C1624   1.406       .  A
O1616      H1632   0.992       .  S
O1618      H1629   0.992       .  S
C1620      C1621   1.411       .  A
C1620      O1625   1.371       .  S
C1621      C1622   1.406       .  A
C1621      H1626   1.083       .  S
C1622      C1623   1.409       .  A
C1623      C1624   1.400       .  A
C1623      O1627   1.371       .  S
C1624      H1628   1.083       .  S
O1625      H1630   0.992       .  S
O1627      H1631   0.992       .  S
C1633      C1634   1.408       .  A
C1633      C1638   1.404       .  A
C1633      H1643   1.082       .  S
C1634      C1635   1.418       .  A
C1634      C1639   1.512       .  S
C1635      C1636   1.411       .  A
C1635      O1640   1.371       .  S
C1636      C1637   1.407       .  A
C1636      H1641   1.083       .  S
C1637      C1638   1.412       .  A
C1638      O1642   1.372   1_565  S
C1639      C1644   1.416       .  A
C1639      C1648   1.409       .  A
O1640      H1656   0.991       .  S
O1642      H1653   0.992       .  S
C1644      C1645   1.408       .  A
C1644      O1649   1.372       .  S
C1645      C1646   1.405       .  A
C1645      H1650   1.083       .  S
C1646      C1647   1.414       .  A
C1647      C1648   1.411       .  A
C1647      O1651   1.372       .  S
C1648      H1652   1.083       .  S
O1649      H1654   0.992       .  S
O1651      H1655   0.992       .  S
C1657      C1658   1.403       .  A
C1657      C1662   1.400       .  A
C1657      H1667   1.083       .  S
C1658      C1659   1.418       .  A
C1658      C1663   1.508       .  S
C1659      C1660   1.412       .  A
C1659      O1664   1.371       .  S
C1660      C1661   1.407       .  A
C1660      H1665   1.083       .  S
C1661      C1662   1.419       .  A
C1662      O1666   1.371       .  S
C1663      C1668   1.419       .  A
C1663      C1672   1.406       .  A
O1664      H1680   0.992       .  S
O1666      H1677   0.991       .  S
C1668      C1669   1.409       .  A
C1668      O1673   1.371       .  S
C1669      C1670   1.404       .  A
C1669      H1674   1.083       .  S
C1670      C1671   1.409       .  A
C1671      C1672   1.405       .  A
C1671      O1675   1.373   1_545  S
C1672      H1676   1.083       .  S
O1673      H1678   0.992       .  S
O1675      H1679   0.991   1_565  S
C1681      C1682   1.404   1_565  A
C1681      C1686   1.403       .  A
C1681      H1691   1.083       .  S
C1682      C1683   1.413       .  A
C1682      C1687   1.493       .  S
C1683      C1684   1.403       .  A
C1683      O1688   1.371       .  S
C1684      C1685   1.404       .  A
C1684      H1689   1.083       .  S
C1685      C1686   1.410   1_545  A
C1686      O1690   1.373       .  S
C1687      C1692   1.413       .  A
C1687      C1696   1.399       .  A
O1688      H1704   0.992       .  S
O1690      H1701   0.992       .  S
C1692      C1693   1.410       .  A
C1692      O1697   1.372       .  S
C1693      C1694   1.407       .  A
C1693      H1698   1.083       .  S
C1694      C1695   1.417       .  A
C1695      C1696   1.397       .  A
C1695      O1699   1.373       .  S
C1696      H1700   1.084       .  S
O1697      H1702   0.992   1_545  S
O1699      H1703   0.992       .  S
C1705      C1706   1.410       .  A
C1705      C1710   1.408       .  A
C1705      H1715   1.083       .  S
C1706      C1707   1.411       .  A
C1706      C1711   1.504       .  S
C1707      C1708   1.404       .  A
C1707      O1712   1.372       .  S
C1708      C1709   1.409       .  A
C1708      H1713   1.083       .  S
C1709      C1710   1.412       .  A
C1710      O1714   1.371       .  S
C1711      C1716   1.412       .  A
C1711      C1720   1.411       .  A
O1712      H1728   0.992       .  S
O1714      H1725   0.992       .  S
C1716      C1717   1.402       .  A
C1716      O1721   1.371       .  S
C1717      C1718   1.404       .  A
C1717      H1722   1.084       .  S
C1718      C1719   1.411       .  A
C1719      C1720   1.411       .  A
C1719      O1723   1.372       .  S
C1720      H1724   1.083       .  S
O1721      H1726   0.991       .  S
O1723      H1727   0.992       .  S
C1729      C1730   1.395       .  A
C1729      C1734   1.389       .  A
C1729      H1739   1.085       .  S
C1730      C1731   1.402       .  A
C1730      C1735   1.463       .  S
C1731      C1732   1.402       .  A
C1731      O1736   1.371       .  S
C1732      C1733   1.409       .  A
C1732      H1737   1.083       .  S
C1733      C1734   1.414       .  A
C1734      O1738   1.372       .  S
C1735      C1740   1.402       .  A
C1735      C1744   1.404       .  A
O1736      H1752   0.991       .  S
O1738      H1749   0.992       .  S
C1740      C1741   1.390       .  A
C1740      O1745   1.373       .  S
C1741      C1742   1.403       .  A
C1741      H1746   1.084       .  S
C1742      C1743   1.406       .  A
C1743      C1744   1.402       .  A
C1743      O1747   1.371       .  S
C1744      H1748   1.083       .  S
O1745      H1750   0.992       .  S
O1747      H1751   0.992       .  S
C1753      C1754   1.405       .  A
C1753      C1758   1.397       .  A
C1753      H1763   1.084       .  S
C1754      C1755   1.403       .  A
C1754      C1759   1.464       .  S
C1755      C1756   1.393       .  A
C1755      O1760   1.372       .  S
C1756      C1757   1.401       .  A
C1756      H1761   1.082       .  S
C1757      C1758   1.401       .  A
C1758      O1762   1.370       .  S
C1759      C1764   1.403       .  A
C1759      C1768   1.395       .  A
O1760      H1776   0.992       .  S
O1762      H1773   0.991       .  S
C1764      C1765   1.402       .  A
C1764      O1769   1.371       .  S
C1765      C1766   1.408       .  A
C1765      H1770   1.083       .  S
C1766      C1767   1.415       .  A
C1767      C1768   1.388       .  A
C1767      O1771   1.372       .  S
C1768      H1772   1.085       .  S
O1769      H1774   0.992       .  S
O1771      H1775   0.992       .  S
C1777      C1778   1.401       .  A
C1777      C1782   1.391       .  A
C1777      H1787   1.084       .  S
C1778      C1779   1.406       .  A
C1778      C1783   1.472       .  S
C1779      C1780   1.401       .  A
C1779      O1784   1.371   1_545  S
C1780      C1781   1.406       .  A
C1780      H1785   1.084   1_545  S
C1781      C1782   1.405       .  A
C1782      O1786   1.372       .  S
C1783      C1788   1.408       .  A
C1783      C1792   1.403       .  A
O1784      H1800   0.992       .  S
O1786      H1797   0.992       .  S
C1788      C1789   1.389       .  A
C1788      O1793   1.374       .  S
C1789      C1790   1.397       .  A
C1789      H1794   1.081       .  S
C1790      C1791   1.408       .  A
C1791      C1792   1.400       .  A
C1791      O1795   1.371       .  S
C1792      H1796   1.083       .  S
O1793      H1798   0.992       .  S
O1795      H1799   0.992       .  S
C1801      C1802   1.409   1_565  A
C1801      C1806   1.406       .  A
C1801      H1811   1.083       .  S
C1802      C1803   1.413       .  A
C1802      C1807   1.506       .  S
C1803      C1804   1.407       .  A
C1803      O1808   1.371       .  S
C1804      C1805   1.408       .  A
C1804      H1809   1.084       .  S
C1805      C1806   1.411   1_545  A
C1806      O1810   1.371       .  S
C1807      C1812   1.411       .  A
C1807      C1816   1.411       .  A
O1808      H1824   0.992       .  S
O1810      H1821   0.992       .  S
C1812      C1813   1.405       .  A
C1812      O1817   1.373       .  S
C1813      C1814   1.407       .  A
C1813      H1818   1.084       .  S
C1814      C1815   1.411       .  A
C1815      C1816   1.411       .  A
C1815      O1819   1.371       .  S
C1816      H1820   1.083       .  S
O1817      H1822   0.992   1_545  S
O1819      H1823   0.991       .  S
C1825      C1826   1.407       .  A
C1825      C1830   1.406       .  A
C1825      H1835   1.083       .  S
C1826      C1827   1.415   1_565  A
C1826      C1831   1.503       .  S
C1827      C1828   1.405       .  A
C1827      O1832   1.372       .  S
C1828      C1829   1.405   1_545  A
C1828      H1833   1.084       .  S
C1829      C1830   1.411       .  A
C1830      O1834   1.371       .  S
C1831      C1836   1.416       .  A
C1831      C1840   1.406       .  A
O1832      H1848   0.992       .  S
O1834      H1845   0.991       .  S
C1836      C1837   1.407       .  A
C1836      O1841   1.371       .  S
C1837      C1838   1.405       .  A
C1837      H1842   1.083       .  S
C1838      C1839   1.411       .  A
C1839      C1840   1.402       .  A
C1839      O1843   1.371       .  S
C1840      H1844   1.083       .  S
O1841      H1846   0.992       .  S
O1843      H1847   0.991   1_565  S
C1849      C1850   1.399       .  A
C1849      C1854   1.400       .  A
C1849      H1859   1.084       .  S
C1850      C1851   1.403       .  A
C1850      C1855   1.463       .  S
C1851      C1852   1.390       .  A
C1851      O1856   1.373       .  S
C1852      C1853   1.400       .  A
C1852      H1857   1.081       .  S
C1853      C1854   1.414       .  A
C1854      O1858   1.371       .  S
C1855      C1860   1.407       .  A
C1855      C1864   1.398       .  A
O1856      H1872   0.992       .  S
O1858      H1869   0.991       .  S
C1860      C1861   1.397       .  A
C1860      O1865   1.372       .  S
C1861      C1862   1.397       .  A
C1861      H1866   1.082       .  S
C1862      C1863   1.407       .  A
C1863      C1864   1.394       .  A
C1863      O1867   1.372       .  S
C1864      H1868   1.084       .  S
O1865      H1870   0.992       .  S
O1867      H1871   0.991       .  S
C1873      C1874   1.401       .  A
C1873      C1878   1.393       .  A
C1873      H1883   1.084       .  S
C1874      C1875   1.409       .  A
C1874      C1879   1.480       .  S
C1875      C1876   1.404       .  A
C1875      O1880   1.371       .  S
C1876      C1877   1.406       .  A
C1876      H1881   1.084       .  S
C1877      C1878   1.407       .  A
C1878      O1882   1.372       .  S
C1879      C1884   1.411       .  A
C1879      C1888   1.403       .  A
O1880      H1896   0.992       .  S
O1882      H1893   0.992       .  S
C1884      C1885   1.393       .  A
C1884      O1889   1.372       .  S
C1885      C1886   1.400       .  A
C1885      H1890   1.083       .  S
C1886      C1887   1.409       .  A
C1887      C1888   1.402       .  A
C1887      O1891   1.371       .  S
C1888      H1892   1.083       .  S
O1889      H1894   0.992       .  S
O1891      H1895   0.992       .  S
C1897      C1898   1.400       .  A
C1897      C1902   1.390       .  A
C1897      H1907   1.084       .  S
C1898      C1899   1.405       .  A
C1898      C1903   1.471       .  S
C1899      C1900   1.401       .  A
C1899      O1904   1.371       .  S
C1900      C1901   1.407       .  A
C1900      H1905   1.083       .  S
C1901      C1902   1.410       .  A
C1902      O1906   1.373       .  S
C1903      C1908   1.402       .  A
C1903      C1912   1.408       .  A
O1904      H1920   0.992       .  S
O1906      H1917   0.993       .  S
C1908      C1909   1.385       .  A
C1908      O1913   1.373       .  S
C1909      C1910   1.403       .  A
C1909      H1914   1.081       .  S
C1910      C1911   1.405       .  A
C1911      C1912   1.405       .  A
C1911      O1915   1.371       .  S
C1912      H1916   1.083       .  S
O1913      H1918   0.992       .  S
O1915      H1919   0.992       .  S
C1921      C1922   1.404       .  A
C1921      C1926   1.399       .  A
C1921      H1931   1.084       .  S
C1922      C1923   1.403       .  A
C1922      C1927   1.467       .  S
C1923      C1924   1.391       .  A
C1923      O1928   1.373       .  S
C1924      C1925   1.405       .  A
C1924      H1929   1.084       .  S
C1925      C1926   1.406       .  A
C1926      O1930   1.371       .  S
C1927      C1932   1.403       .  A
C1927      C1936   1.406       .  A
O1928      H1944   0.992       .  S
O1930      H1941   0.992       .  S
C1932      C1933   1.387       .  A
C1932      O1937   1.372       .  S
C1933      C1934   1.401       .  A
C1933      H1938   1.085       .  S
C1934      C1935   1.405       .  A
C1935      C1936   1.401       .  A
C1935      O1939   1.371       .  S
C1936      H1940   1.083       .  S
O1937      H1942   0.992       .  S
O1939      H1943   0.991       .  S
C1945      C1946   1.412       .  A
C1945      C1950   1.413       .  A
C1945      H1955   1.083       .  S
C1946      C1947   1.410       .  A
C1946      C1951   1.504       .  S
C1947      C1948   1.402       .  A
C1947      O1952   1.371       .  S
C1948      C1949   1.405       .  A
C1948      H1953   1.084       .  S
C1949      C1950   1.410       .  A
C1950      O1954   1.372       .  S
C1951      C1956   1.412       .  A
C1951      C1960   1.410       .  A
O1952      H1968   0.992       .  S
O1954      H1965   0.992       .  S
C1956      C1957   1.407       .  A
C1956      O1961   1.372       .  S
C1957      C1958   1.409       .  A
C1957      H1962   1.084       .  S
C1958      C1959   1.409       .  A
C1959      C1960   1.408       .  A
C1959      O1963   1.371       .  S
C1960      H1964   1.083       .  S
O1961      H1966   0.992       .  S
O1963      H1967   0.992       .  S
C1969      C1970   1.413       .  A
C1969      C1974   1.413       .  A
C1969      H1979   1.083       .  S
C1970      C1971   1.415       .  A
C1970      C1975   1.514       .  S
C1971      C1972   1.409       .  A
C1971      O1976   1.372       .  S
C1972      C1973   1.404       .  A
C1972      H1977   1.084       .  S
C1973      C1974   1.410       .  A
C1974      O1978   1.372       .  S
C1975      C1980   1.419       .  A
C1975      C1984   1.410       .  A
O1976      H1992   0.993       .  S
O1978      H1989   0.992       .  S
C1980      C1981   1.414       .  A
C1980      O1985   1.373       .  S
C1981      C1982   1.404       .  A
C1981      H1986   1.084       .  S
C1982      C1983   1.412       .  A
C1983      C1984   1.407       .  A
C1983      O1987   1.372       .  S
C1984      H1988   1.083       .  S
O1985      H1990   0.992       .  S
O1987      H1991   0.991       .  S
C1993      C1994   1.412       .  A
C1993      C1998   1.414       .  A
C1993      H2003   1.082       .  S
C1994      C1995   1.415       .  A
C1994      C1999   1.516       .  S
C1995      C1996   1.405       .  A
C1995      O2000   1.371       .  S
C1996      C1997   1.408       .  A
C1996      H2001   1.084       .  S
C1997      C1998   1.413       .  A
C1998      O2002   1.373       .  S
C1999      C2004   1.416       .  A
C1999      C2008   1.412       .  A
O2000      H2016   0.992       .  S
O2002      H2013   0.992       .  S
C2004      C2005   1.408       .  A
C2004      O2009   1.371       .  S
C2005      C2006   1.408       .  A
C2005      H2010   1.083       .  S
C2006      C2007   1.412       .  A
C2007      C2008   1.408       .  A
C2007      O2011   1.371       .  S
C2008      H2012   1.082       .  S
O2009      H2014   0.991       .  S
O2011      H2015   0.992       .  S
C2017      C2018   1.404       .  A
C2017      C2022   1.401       .  A
C2017      H2027   1.082       .  S
C2018      C2019   1.416       .  A
C2018      C2023   1.496       .  S
C2019      C2020   1.404       .  A
C2019      O2024   1.371       .  S
C2020      C2021   1.402       .  A
C2020      H2025   1.083       .  S
C2021      C2022   1.409       .  A
C2022      O2026   1.373       .  S
C2023      C2028   1.415       .  A
C2023      C2032   1.401       .  A
O2024      H2040   0.992       .  S
O2026      H2037   0.990       .  S
C2028      C2029   1.408       .  A
C2028      O2033   1.372       .  S
C2029      C2030   1.406       .  A
C2029      H2034   1.083       .  S
C2030      C2031   1.417       .  A
C2031      C2032   1.398       .  A
C2031      O2035   1.372       .  S
C2032      H2036   1.083       .  S
O2033      H2038   0.993       .  S
O2035      H2039   0.991       .  S
C2041      C2042   1.411       .  A
C2041      C2046   1.410       .  A
C2041      H2051   1.082       .  S
C2042      C2043   1.411       .  A
C2042      C2047   1.504       .  S
C2043      C2044   1.403       .  A
C2043      O2048   1.371       .  S
C2044      C2045   1.405       .  A
C2044      H2049   1.083       .  S
C2045      C2046   1.410       .  A
C2046      O2050   1.371       .  S
C2047      C2052   1.412       .  A
C2047      C2056   1.409       .  A
O2048      H2064   0.992       .  S
O2050      H2061   0.991       .  S
C2052      C2053   1.408       .  A
C2052      O2057   1.372       .  S
C2053      C2054   1.407       .  A
C2053      H2058   1.082       .  S
C2054      C2055   1.410       .  A
C2055      C2056   1.407       .  A
C2055      O2059   1.371       .  S
C2056      H2060   1.083       .  S
O2057      H2062   0.992       .  S
O2059      H2063   0.991       .  S
C2065      C2066   1.406       .  A
C2065      C2070   1.402       .  A
C2065      H2075   1.082       .  S
C2066      C2067   1.416       .  A
C2066      C2071   1.503       .  S
C2067      C2068   1.407       .  A
C2067      O2072   1.371       .  S
C2068      C2069   1.405       .  A
C2068      H2073   1.083       .  S
C2069      C2070   1.411       .  A
C2070      O2074   1.372       .  S
C2071      C2076   1.415       .  A
C2071      C2080   1.404       .  A
O2072      H2088   0.992       .  S
O2074      H2085   0.992       .  S
C2076      C2077   1.411       .  A
C2076      O2081   1.372       .  S
C2077      C2078   1.407       .  A
C2077      H2082   1.083       .  S
C2078      C2079   1.418       .  A
C2079      C2080   1.403       .  A
C2079      O2083   1.372       .  S
C2080      H2084   1.083       .  S
O2081      H2086   0.993       .  S
O2083      H2087   0.992       .  S
C2089      C2090   1.401       .  A
C2089      C2094   1.401       .  A
C2089      H2099   1.083       .  S
C2090      C2091   1.404       .  A
C2090      C2095   1.467       .  S
C2091      C2092   1.390       .  A
C2091      O2096   1.374       .  S
C2092      C2093   1.404       .  A
C2092      H2097   1.082       .  S
C2093      C2094   1.411       .  A
C2094      O2098   1.371       .  S
C2095      C2100   1.409       .  A
C2095      C2104   1.399       .  A
O2096      H2112   0.992       .  S
O2098      H2109   0.992       .  S
C2100      C2101   1.392       .  A
C2100      O2105   1.372       .  S
C2101      C2102   1.396       .  A
C2101      H2106   1.081       .  S
C2102      C2103   1.407       .  A
C2103      C2104   1.395       .  A
C2103      O2107   1.372       .  S
C2104      H2108   1.084       .  S
O2105      H2110   0.991       .  S
O2107      H2111   0.992       .  S
C2113      C2114   1.395       .  A
C2113      C2118   1.389       .  A
C2113      H2123   1.085       .  S
C2114      C2115   1.404       .  A
C2114      C2119   1.464       .  S
C2115      C2116   1.401       .  A
C2115      O2120   1.371       .  S
C2116      C2117   1.406       .  A
C2116      H2121   1.083       .  S
C2117      C2118   1.416       .  A
C2118      O2122   1.373       .  S
C2119      C2124   1.403       .  A
C2119      C2128   1.405       .  A
O2120      H2136   0.991       .  S
O2122      H2133   0.992       .  S
C2124      C2125   1.391       .  A
C2124      O2129   1.372       .  S
C2125      C2126   1.402       .  A
C2125      H2130   1.084       .  S
C2126      C2127   1.405       .  A
C2127      C2128   1.400       .  A
C2127      O2131   1.371       .  S
C2128      H2132   1.084       .  S
O2129      H2134   0.991       .  S
O2131      H2135   0.992       .  S
C2137      C2138   1.402       .  A
C2137      C2142   1.399       .  A
C2137      H2147   1.083       .  S
C2138      C2139   1.409       .  A
C2138      C2143   1.472       .  S
C2139      C2140   1.389       .  A
C2139      O2144   1.372       .  S
C2140      C2141   1.399       .  A
C2140      H2145   1.083       .  S
C2141      C2142   1.407       .  A
C2142      O2146   1.371   1_554  S
C2143      C2148   1.407       .  A
C2143      C2152   1.401       .  A
O2144      H2160   0.991       .  S
O2146      H2157   0.991       .  S
C2148      C2149   1.400       .  A
C2148      O2153   1.371       .  S
C2149      C2150   1.404       .  A
C2149      H2154   1.084       .  S
C2150      C2151   1.406       .  A
C2151      C2152   1.390       .  A
C2151      O2155   1.371       .  S
C2152      H2156   1.084       .  S
O2153      H2158   0.991       .  S
O2155      H2159   0.992       .  S
C2161      C2162   1.409       .  A
C2161      C2166   1.411       .  A
C2161      H2171   1.083       .  S
C2162      C2163   1.416   1_554  A
C2162      C2167   1.510       .  S
C2163      C2164   1.407       .  A
C2163      O2168   1.372       .  S
C2164      C2165   1.406   1_556  A
C2164      H2169   1.084       .  S
C2165      C2166   1.413       .  A
C2166      O2170   1.371       .  S
C2167      C2172   1.417       .  A
C2167      C2176   1.408       .  A
O2168      H2184   0.992       .  S
O2170      H2181   0.992       .  S
C2172      C2173   1.411       .  A
C2172      O2177   1.371       .  S
C2173      C2174   1.407       .  A
C2173      H2178   1.083       .  S
C2174      C2175   1.411       .  A
C2175      C2176   1.405       .  A
C2175      O2179   1.371       .  S
C2176      H2180   1.083       .  S
O2177      H2182   0.992       .  S
O2179      H2183   0.992   1_554  S
C2185      C2186   1.412   1_554  A
C2185      C2190   1.411       .  A
C2185      H2195   1.082       .  S
C2186      C2187   1.414       .  A
C2186      C2191   1.514       .  S
C2187      C2188   1.409       .  A
C2187      O2192   1.371       .  S
C2188      C2189   1.410       .  A
C2188      H2193   1.083       .  S
C2189      C2190   1.411   1_556  A
C2190      O2194   1.371       .  S
C2191      C2196   1.413       .  A
C2191      C2200   1.413       .  A
O2192      H2208   0.992       .  S
O2194      H2205   0.992       .  S
C2196      C2197   1.407       .  A
C2196      O2201   1.372       .  S
C2197      C2198   1.407       .  A
C2197      H2202   1.083       .  S
C2198      C2199   1.413       .  A
C2199      C2200   1.414       .  A
C2199      O2203   1.372       .  S
C2200      H2204   1.083       .  S
O2201      H2206   0.992   1_556  S
O2203      H2207   0.991       .  S
C2209      C2210   1.409       .  A
C2209      C2214   1.407       .  A
C2209      H2219   1.083       .  S
C2210      C2211   1.410       .  A
C2210      C2215   1.497       .  S
C2211      C2212   1.402       .  A
C2211      O2216   1.372       .  S
C2212      C2213   1.407       .  A
C2212      H2217   1.083       .  S
C2213      C2214   1.413       .  A
C2214      O2218   1.372       .  S
C2215      C2220   1.410       .  A
C2215      C2224   1.410       .  A
O2216      H2232   0.992       .  S
O2218      H2229   0.992       .  S
C2220      C2221   1.401       .  A
C2220      O2225   1.372       .  S
C2221      C2222   1.405       .  A
C2221      H2226   1.084       .  S
C2222      C2223   1.408       .  A
C2223      C2224   1.408       .  A
C2223      O2227   1.371       .  S
C2224      H2228   1.083       .  S
O2225      H2230   0.992       .  S
O2227      H2231   0.992       .  S
C2233      C2234   1.409       .  A
C2233      C2238   1.406       .  A
C2233      H2243   1.083       .  S
C2234      C2235   1.413       .  A
C2234      C2239   1.506       .  S
C2235      C2236   1.407       .  A
C2235      O2240   1.371       .  S
C2236      C2237   1.408       .  A
C2236      H2241   1.083       .  S
C2237      C2238   1.412       .  A
C2238      O2242   1.371       .  S
C2239      C2244   1.411       .  A
C2239      C2248   1.410       .  A
O2240      H2256   0.992       .  S
O2242      H2253   0.992       .  S
C2244      C2245   1.405       .  A
C2244      O2249   1.373       .  S
C2245      C2246   1.408       .  A
C2245      H2250   1.083       .  S
C2246      C2247   1.414       .  A
C2247      C2248   1.413       .  A
C2247      O2251   1.372       .  S
C2248      H2252   1.083       .  S
O2249      H2254   0.992       .  S
O2251      H2255   0.991       .  S
C2257      C2258   1.408       .  A
C2257      C2262   1.405       .  A
C2257      H2267   1.083       .  S
C2258      C2259   1.419       .  A
C2258      C2263   1.509       .  S
C2259      C2260   1.411       .  A
C2259      O2264   1.373       .  S
C2260      C2261   1.403       .  A
C2260      H2265   1.083       .  S
C2261      C2262   1.408       .  A
C2262      O2266   1.372       .  S
C2263      C2268   1.414       .  A
C2263      C2272   1.414       .  A
O2264      H2280   0.993       .  S
O2266      H2277   0.992       .  S
C2268      C2269   1.406       .  A
C2268      O2273   1.373       .  S
C2269      C2270   1.405       .  A
C2269      H2274   1.084       .  S
C2270      C2271   1.407       .  A
C2271      C2272   1.410       .  A
C2271      O2275   1.371       .  S
C2272      H2276   1.083       .  S
O2273      H2278   0.992       .  S
O2275      H2279   0.992       .  S
C2281      C2282   1.406       .  A
C2281      C2286   1.399       .  A
C2281      H2291   1.082       .  S
C2282      C2283   1.418       .  A
C2282      C2287   1.507       .  S
C2283      C2284   1.410       .  A
C2283      O2288   1.371       .  S
C2284      C2285   1.406       .  A
C2284      H2289   1.083       .  S
C2285      C2286   1.410       .  A
C2286      O2290   1.371       .  S
C2287      C2292   1.417       .  A
C2287      C2296   1.408       .  A
O2288      H2304   0.992       .  S
O2290      H2301   0.991       .  S
C2292      C2293   1.404       .  A
C2292      O2297   1.372       .  S
C2293      C2294   1.402       .  A
C2293      H2298   1.084       .  S
C2294      C2295   1.413       .  A
C2295      C2296   1.408       .  A
C2295      O2299   1.372       .  S
C2296      H2300   1.083       .  S
O2297      H2302   0.993       .  S
O2299      H2303   0.992       .  S
C2305      C2306   1.409       .  A
C2305      C2310   1.408       .  A
C2305      H2315   1.083       .  S
C2306      C2307   1.411       .  A
C2306      C2311   1.500       .  S
C2307      C2308   1.402       .  A
C2307      O2312   1.371       .  S
C2308      C2309   1.406       .  A
C2308      H2313   1.084       .  S
C2309      C2310   1.410       .  A
C2310      O2314   1.373       .  S
C2311      C2316   1.410       .  A
C2311      C2320   1.409       .  A
O2312      H2328   0.992       .  S
O2314      H2325   0.992       .  S
C2316      C2317   1.400       .  A
C2316      O2321   1.372       .  S
C2317      C2318   1.408       .  A
C2317      H2322   1.082       .  S
C2318      C2319   1.412       .  A
C2319      C2320   1.408       .  A
C2319      O2323   1.371       .  S
C2320      H2324   1.083       .  S
O2321      H2326   0.992       .  S
O2323      H2327   0.992       .  S
C2329      C2330   1.401       .  A
C2329      C2334   1.398       .  A
C2329      H2339   1.083       .  S
C2330      C2331   1.414       .  A
C2330      C2335   1.497       .  S
C2331      C2332   1.410       .  A
C2331      O2336   1.371       .  S
C2332      C2333   1.407       .  A
C2332      H2337   1.083       .  S
C2333      C2334   1.418       .  A
C2334      O2338   1.372       .  S
C2335      C2340   1.415       .  A
C2335      C2344   1.404       .  A
O2336      H2352   0.992       .  S
O2338      H2349   0.991       .  S
C2340      C2341   1.405       .  A
C2340      O2345   1.371       .  S
C2341      C2342   1.404       .  A
C2341      H2346   1.083       .  S
C2342      C2343   1.410       .  A
C2343      C2344   1.405       .  A
C2343      O2347   1.372       .  S
C2344      H2348   1.083       .  S
O2345      H2350   0.992       .  S
O2347      H2351   0.991       .  S
C2353      C2354   1.400       .  A
C2353      C2358   1.399       .  A
C2353      H2363   1.084       .  S
C2354      C2355   1.406       .  A
C2354      C2359   1.468       .  S
C2355      C2356   1.394       .  A
C2355      O2360   1.373       .  S
C2356      C2357   1.399       .  A
C2356      H2361   1.082       .  S
C2357      C2358   1.409       .  A
C2358      O2362   1.371       .  S
C2359      C2364   1.406       .  A
C2359      C2368   1.401       .  A
O2360      H2376   0.991       .  S
O2362      H2373   0.991       .  S
C2364      C2365   1.390       .  A
C2364      O2369   1.372       .  S
C2365      C2366   1.397       .  A
C2365      H2370   1.079       .  S
C2366      C2367   1.409       .  A
C2367      C2368   1.401       .  A
C2367      O2371   1.372       .  S
C2368      H2372   1.083       .  S
O2369      H2374   0.992       .  S
O2371      H2375   0.991       .  S
C2377      C2378   1.408       .  A
C2377      C2382   1.406       .  A
C2377      H2387   1.083       .  S
C2378      C2379   1.404       .  A
C2378      C2383   1.476       .  S
C2379      C2380   1.387       .  A
C2379      O2384   1.373       .  S
C2380      C2381   1.403       .  A
C2380      H2385   1.081       .  S
C2381      C2382   1.405       .  A
C2382      O2386   1.371       .  S
C2383      C2388   1.406       .  A
C2383      C2392   1.401       .  A
O2384      H2400   0.991       .  S
O2386      H2397   0.992       .  S
C2388      C2389   1.403       .  A
C2388      O2393   1.371       .  S
C2389      C2390   1.406       .  A
C2389      H2394   1.083       .  S
C2390      C2391   1.410       .  A
C2391      C2392   1.389       .  A
C2391      O2395   1.373       .  S
C2392      H2396   1.084       .  S
O2393      H2398   0.991       .  S
O2395      H2399   0.991       .  S
C2401      C2402   1.400       .  A
C2401      C2406   1.399       .  A
C2401      H2411   1.084       .  S
C2402      C2403   1.410       .  A
C2402      C2407   1.473       .  S
C2403      C2404   1.396       .  A
C2403      O2408   1.372       .  S
C2404      C2405   1.397       .  A
C2404      H2409   1.081       .  S
C2405      C2406   1.407       .  A
C2406      O2410   1.372       .  S
C2407      C2412   1.406       .  A
C2407      C2416   1.396       .  A
O2408      H2424   0.991       .  S
O2410      H2421   0.991       .  S
C2412      C2413   1.405       .  A
C2412      O2417   1.371       .  S
C2413      C2414   1.407       .  A
C2413      H2418   1.083   1_455  S
C2414      C2415   1.414       .  A
C2415      C2416   1.392       .  A
C2415      O2419   1.373       .  S
C2416      H2420   1.084       .  S
O2417      H2422   0.992       .  S
O2419      H2423   0.991       .  S
C2425      C2426   1.410   1_455  A
C2425      C2430   1.402       .  A
C2425      H2435   1.082       .  S
C2426      C2427   1.413       .  A
C2426      C2431   1.502       .  S
C2427      C2428   1.403       .  A
C2427      O2432   1.371       .  S
C2428      C2429   1.407       .  A
C2428      H2433   1.083       .  S
C2429      C2430   1.409   1_655  A
C2430      O2434   1.371       .  S
C2431      C2436   1.413       .  A
C2431      C2440   1.412       .  A
O2432      H2448   0.991       .  S
O2434      H2445   0.992       .  S
C2436      C2437   1.397       .  A
C2436      O2441   1.371       .  S
C2437      C2438   1.403       .  A
C2437      H2442   1.084       .  S
C2438      C2439   1.407       .  A
C2439      C2440   1.408       .  A
C2439      O2443   1.373       .  S
C2440      H2444   1.082       .  S
O2441      H2446   0.992       .  S
O2443      H2447   0.992       .  S
C2449      C2450   1.413       .  A
C2449      C2454   1.410       .  A
C2449      H2459   1.083       .  S
C2450      C2451   1.411       .  A
C2450      C2455   1.504       .  S
C2451      C2452   1.402       .  A
C2451      O2456   1.371       .  S
C2452      C2453   1.404       .  A
C2452      H2457   1.083       .  S
C2453      C2454   1.408       .  A
C2454      O2458   1.371       .  S
C2455      C2460   1.410       .  A
C2455      C2464   1.411       .  A
O2456      H2472   0.992       .  S
O2458      H2469   0.991       .  S
C2460      C2461   1.404       .  A
C2460      O2465   1.372       .  S
C2461      C2462   1.410       .  A
C2461      H2466   1.084       .  S
C2462      C2463   1.410       .  A
C2463      C2464   1.410       .  A
C2463      O2467   1.371       .  S
C2464      H2468   1.083       .  S
O2465      H2470   0.992       .  S
O2467      H2471   0.992       .  S
C2473      C2474   1.409       .  A
C2473      C2478   1.405       .  A
C2473      H2483   1.083       .  S
C2474      C2475   1.408       .  A
C2474      C2479   1.497       .  S
C2475      C2476   1.401       .  A
C2475      O2480   1.372       .  S
C2476      C2477   1.411       .  A
C2476      H2481   1.083       .  S
C2477      C2478   1.410       .  A
C2478      O2482   1.371       .  S
C2479      C2484   1.409       .  A
C2479      C2488   1.410       .  A
O2480      H2496   0.992       .  S
O2482      H2493   0.992       .  S
C2484      C2485   1.399       .  A
C2484      O2489   1.373       .  S
C2485      C2486   1.405       .  A
C2485      H2490   1.084       .  S
C2486      C2487   1.409       .  A
C2487      C2488   1.410       .  A
C2487      O2491   1.373       .  S
C2488      H2492   1.083       .  S
O2489      H2494   0.991       .  S
O2491      H2495   0.992       .  S
C2497      C2498   1.404       .  A
C2497      C2502   1.402       .  A
C2497      H2507   1.083       .  S
C2498      C2499   1.411       .  A
C2498      C2503   1.484       .  S
C2499      C2500   1.396       .  A
C2499      O2504   1.372       .  S
C2500      C2501   1.400       .  A
C2500      H2505   1.083       .  S
C2501      C2502   1.409       .  A
C2502      O2506   1.372       .  S
C2503      C2508   1.410       .  A
C2503      C2512   1.402       .  A
O2504      H2520   0.992       .  S
O2506      H2517   0.992       .  S
C2508      C2509   1.407       .  A
C2508      O2513   1.371       .  S
C2509      C2510   1.406       .  A
C2509      H2514   1.083       .  S
C2510      C2511   1.408       .  A
C2511      C2512   1.394       .  A
C2511      O2515   1.372       .  S
C2512      H2516   1.084       .  S
O2513      H2518   0.992       .  S
O2515      H2519   0.992       .  S
C2521      C2522   1.406       .  A
C2521      C2526   1.400       .  A
C2521      H2531   1.083       .  S
C2522      C2523   1.404       .  A
C2522      C2527   1.470       .  S
C2523      C2524   1.391       .  A
C2523      O2528   1.373       .  S
C2524      C2525   1.405       .  A
C2524      H2529   1.084       .  S
C2525      C2526   1.404       .  A
C2526      O2530   1.371       .  S
C2527      C2532   1.404       .  A
C2527      C2536   1.404       .  A
O2528      H2544   0.992       .  S
O2530      H2541   0.991       .  S
C2532      C2533   1.390       .  A
C2532      O2537   1.373       .  S
C2533      C2534   1.403       .  A
C2533      H2538   1.084       .  S
C2534      C2535   1.409       .  A
C2535      C2536   1.402       .  A
C2535      O2539   1.372       .  S
C2536      H2540   1.084       .  S
O2537      H2542   0.992       .  S
O2539      H2543   0.992       .  S
C2545      C2546   1.409       .  A
C2545      C2550   1.408       .  A
C2545      H2555   1.083       .  S
C2546      C2547   1.412       .  A
C2546      C2551   1.504       .  S
C2547      C2548   1.406       .  A
C2547      O2552   1.371       .  S
C2548      C2549   1.407       .  A
C2548      H2553   1.084       .  S
C2549      C2550   1.412       .  A
C2550      O2554   1.372       .  S
C2551      C2556   1.410       .  A
C2551      C2560   1.409       .  A
O2552      H2568   0.992       .  S
O2554      H2565   0.992       .  S
C2556      C2557   1.404       .  A
C2556      O2561   1.371       .  S
C2557      C2558   1.407       .  A
C2557      H2562   1.084   1_655  S
C2558      C2559   1.412       .  A
C2559      C2560   1.411       .  A
C2559      O2563   1.372       .  S
C2560      H2564   1.083       .  S
O2561      H2566   0.992   1_655  S
O2563      H2567   0.991       .  S
C2569      C2570   1.407       .  A
C2569      C2574   1.406       .  A
C2569      H2579   1.083       .  S
C2570      C2571   1.415       .  A
C2570      C2575   1.501       .  S
C2571      C2572   1.405       .  A
C2571      O2576   1.372       .  S
C2572      C2573   1.404       .  A
C2572      H2577   1.084       .  S
C2573      C2574   1.410       .  A
C2574      O2578   1.370       .  S
C2575      C2580   1.416       .  A
C2575      C2584   1.406       .  A
O2576      H2592   0.992       .  S
O2578      H2589   0.991       .  S
C2580      C2581   1.409       .  A
C2580      O2585   1.371       .  S
C2581      C2582   1.403       .  A
C2581      H2586   1.083       .  S
C2582      C2583   1.409       .  A
C2583      C2584   1.401       .  A
C2583      O2587   1.372   1_655  S
C2584      H2588   1.083       .  S
O2585      H2590   0.992       .  S
O2587      H2591   0.992       .  S
C2593      C2594   1.406       .  A
C2593      C2598   1.402       .  A
C2593      H2603   1.082       .  S
C2594      C2595   1.417       .  A
C2594      C2599   1.505       .  S
C2595      C2596   1.408       .  A
C2595      O2600   1.371       .  S
C2596      C2597   1.405       .  A
C2596      H2601   1.083       .  S
C2597      C2598   1.411       .  A
C2598      O2602   1.372       .  S
C2599      C2604   1.415       .  A
C2599      C2608   1.404       .  A
O2600      H2616   0.992       .  S
O2602      H2613   0.992       .  S
C2604      C2605   1.411       .  A
C2604      O2609   1.373       .  S
C2605      C2606   1.407       .  A
C2605      H2610   1.083       .  S
C2606      C2607   1.417       .  A
C2607      C2608   1.402       .  A
C2607      O2611   1.371       .  S
C2608      H2612   1.083       .  S
O2609      H2614   0.992       .  S
O2611      H2615   0.992       .  S
C2617      C2618   1.409       .  A
C2617      C2622   1.406       .  A
C2617      H2627   1.083       .  S
C2618      C2619   1.414       .  A
C2618      C2623   1.506       .  S
C2619      C2620   1.407       .  A
C2619      O2624   1.371       .  S
C2620      C2621   1.406       .  A
C2620      H2625   1.084       .  S
C2621      C2622   1.411       .  A
C2622      O2626   1.372       .  S
C2623      C2628   1.413       .  A
C2623      C2632   1.410       .  A
O2624      H2640   0.991       .  S
O2626      H2637   0.991       .  S
C2628      C2629   1.404       .  A
C2628      O2633   1.371       .  S
C2629      C2630   1.406       .  A
C2629      H2634   1.084       .  S
C2630      C2631   1.411       .  A
C2631      C2632   1.411       .  A
C2631      O2635   1.373       .  S
C2632      H2636   1.083       .  S
O2633      H2638   0.991       .  S
O2635      H2639   0.992       .  S
C2641      C2642   1.405       .  A
C2641      C2646   1.403       .  A
C2641      H2651   1.082       .  S
C2642      C2643   1.417       .  A
C2642      C2647   1.504       .  S
C2643      C2644   1.408       .  A
C2643      O2648   1.371       .  S
C2644      C2645   1.406       .  A
C2644      H2649   1.083       .  S
C2645      C2646   1.409       .  A
C2646      O2650   1.373       .  S
C2647      C2652   1.417       .  A
C2647      C2656   1.404       .  A
O2648      H2664   0.992       .  S
O2650      H2661   0.992       .  S
C2652      C2653   1.410       .  A
C2652      O2657   1.373       .  S
C2653      C2654   1.406       .  A
C2653      H2658   1.083       .  S
C2654      C2655   1.417       .  A
C2655      C2656   1.401       .  A
C2655      O2659   1.371       .  S
C2656      H2660   1.083       .  S
O2657      H2662   0.992       .  S
O2659      H2663   0.992       .  S
C2665      C2666   1.409       .  A
C2665      C2670   1.410       .  A
C2665      H2675   1.083       .  S
C2666      C2667   1.409       .  A
C2666      C2671   1.500       .  S
C2667      C2668   1.404       .  A
C2667      O2672   1.372       .  S
C2668      C2669   1.409       .  A
C2668      H2673   1.083       .  S
C2669      C2670   1.413       .  A
C2670      O2674   1.371       .  S
C2671      C2676   1.410       .  A
C2671      C2680   1.410       .  A
O2672      H2688   0.992       .  S
O2674      H2685   0.991       .  S
C2676      C2677   1.402       .  A
C2676      O2681   1.372       .  S
C2677      C2678   1.407       .  A
C2677      H2682   1.084       .  S
C2678      C2679   1.410       .  A
C2679      C2680   1.409       .  A
C2679      O2683   1.371       .  S
C2680      H2684   1.083       .  S
O2681      H2686   0.992       .  S
O2683      H2687   0.992       .  S
C2689      C2690   1.409       .  A
C2689      C2694   1.403       .  A
C2689      H2699   1.083       .  S
C2690      C2691   1.413       .  A
C2690      C2695   1.501       .  S
C2691      C2692   1.405       .  A
C2691      O2696   1.371       .  S
C2692      C2693   1.406       .  A
C2692      H2697   1.082       .  S
C2693      C2694   1.408       .  A
C2694      O2698   1.372       .  S
C2695      C2700   1.412       .  A
C2695      C2704   1.412       .  A
O2696      H2712   0.991       .  S
O2698      H2709   0.991       .  S
C2700      C2701   1.399       .  A
C2700      O2705   1.371       .  S
C2701      C2702   1.402       .  A
C2701      H2706   1.084       .  S
C2702      C2703   1.408       .  A
C2703      C2704   1.410       .  A
C2703      O2707   1.372       .  S
C2704      H2708   1.082       .  S
O2705      H2710   0.991       .  S
O2707      H2711   0.991       .  S
C2713      C2714   1.403       .  A
C2713      C2718   1.401       .  A
C2713      H2723   1.083       .  S
C2714      C2715   1.414       .  A
C2714      C2719   1.494       .  S
C2715      C2716   1.404       .  A
C2715      O2720   1.371       .  S
C2716      C2717   1.403       .  A
C2716      H2721   1.083       .  S
C2717      C2718   1.412       .  A
C2718      O2722   1.372       .  S
C2719      C2724   1.413       .  A
C2719      C2728   1.401       .  A
O2720      H2736   0.992       .  S
O2722      H2733   0.991       .  S
C2724      C2725   1.410       .  A
C2724      O2729   1.372       .  S
C2725      C2726   1.407       .  A
C2725      H2730   1.083       .  S
C2726      C2727   1.417       .  A
C2727      C2728   1.398       .  A
C2727      O2731   1.372       .  S
C2728      H2732   1.084       .  S
O2729      H2734   0.992       .  S
O2731      H2735   0.991       .  S
C2737      C2738   1.404       .  A
C2737      C2742   1.400       .  A
C2737      H2747   1.083       .  S
C2738      C2739   1.409       .  A
C2738      C2743   1.477       .  S
C2739      C2740   1.391       .  A
C2739      O2744   1.372       .  S
C2740      C2741   1.397       .  A
C2740      H2745   1.078       .  S
C2741      C2742   1.407       .  A
C2742      O2746   1.371       .  S
C2743      C2748   1.408       .  A
C2743      C2752   1.402       .  A
O2744      H2760   0.992       .  S
O2746      H2757   0.991       .  S
C2748      C2749   1.401       .  A
C2748      O2753   1.371       .  S
C2749      C2750   1.406       .  A
C2749      H2754   1.083       .  S
C2750      C2751   1.408       .  A
C2751      C2752   1.391       .  A
C2751      O2755   1.372       .  S
C2752      H2756   1.084       .  S
O2753      H2758   0.991       .  S
O2755      H2759   0.990       .  S
C2761      C2762   1.399       .  A
C2761      C2766   1.400       .  A
C2761      H2771   1.084       .  S
C2762      C2763   1.405       .  A
C2762      C2767   1.470       .  S
C2763      C2764   1.395       .  A
C2763      O2768   1.373       .  S
C2764      C2765   1.403       .  A
C2764      H2769   1.084       .  S
C2765      C2766   1.413       .  A
C2766      O2770   1.371       .  S
C2767      C2772   1.407       .  A
C2767      C2776   1.401       .  A
O2768      H2784   0.992       .  S
O2770      H2781   0.992       .  S
C2772      C2773   1.394       .  A
C2772      O2777   1.372       .  S
C2773      C2774   1.397       .  A
C2773      H2778   1.078       .  S
C2774      C2775   1.408       .  A
C2775      C2776   1.400       .  A
C2775      O2779   1.371   1_556  S
C2776      H2780   1.084       .  S
O2777      H2782   0.991       .  S
O2779      H2783   0.992       .  S
C2785      C2786   1.401       .  A
C2785      C2790   1.392       .  A
C2785      H2795   1.084       .  S
C2786      C2787   1.408       .  A
C2786      C2791   1.478       .  S
C2787      C2788   1.402       .  A
C2787      O2792   1.371       .  S
C2788      C2789   1.405       .  A
C2788      H2793   1.083       .  S
C2789      C2790   1.408       .  A
C2790      O2794   1.373       .  S
C2791      C2796   1.411       .  A
C2791      C2800   1.403       .  A
O2792      H2808   0.991       .  S
O2794      H2805   0.992       .  S
C2796      C2797   1.391       .  A
C2796      O2801   1.372       .  S
C2797      C2798   1.398       .  A
C2797      H2802   1.082       .  S
C2798      C2799   1.408       .  A
C2799      C2800   1.399       .  A
C2799      O2803   1.372       .  S
C2800      H2804   1.083       .  S
O2801      H2806   0.991       .  S
O2803      H2807   0.992       .  S
C2809      C2810   1.410       .  A
C2809      C2814   1.406       .  A
C2809      H2819   1.083       .  S
C2810      C2811   1.410       .  A
C2810      C2815   1.495       .  S
C2811      C2812   1.402       .  A
C2811      O2816   1.372       .  S
C2812      C2813   1.402       .  A
C2812      H2817   1.084       .  S
C2813      C2814   1.406       .  A
C2814      O2818   1.371       .  S
C2815      C2820   1.414       .  A
C2815      C2824   1.403       .  A
O2816      H2832   0.992       .  S
O2818      H2829   0.991       .  S
C2820      C2821   1.410       .  A
C2820      O2825   1.373       .  S
C2821      C2822   1.404       .  A
C2821      H2826   1.084       .  S
C2822      C2823   1.412       .  A
C2823      C2824   1.400       .  A
C2823      O2827   1.372       .  S
C2824      H2828   1.084       .  S
O2825      H2830   0.992       .  S
O2827      H2831   0.992       .  S
C2833      C2834   1.402       .  A
C2833      C2838   1.399       .  A
C2833      H2843   1.083       .  S
C2834      C2835   1.415       .  A
C2834      C2839   1.497       .  S
C2835      C2836   1.408       .  A
C2835      O2840   1.371       .  S
C2836      C2837   1.406       .  A
C2836      H2841   1.083       .  S
C2837      C2838   1.416       .  A
C2838      O2842   1.372       .  S
C2839      C2844   1.416       .  A
C2839      C2848   1.404       .  A
O2840      H2856   0.991       .  S
O2842      H2853   0.992       .  S
C2844      C2845   1.406       .  A
C2844      O2849   1.371       .  S
C2845      C2846   1.402       .  A
C2845      H2850   1.083       .  S
C2846      C2847   1.408       .  A
C2847      C2848   1.401       .  A
C2847      O2851   1.372       .  S
C2848      H2852   1.083       .  S
O2849      H2854   0.992       .  S
O2851      H2855   0.989       .  S
C2857      C2858   1.407       .  A
C2857      C2862   1.406       .  A
C2857      H2867   1.082       .  S
C2858      C2859   1.418       .  A
C2858      C2863   1.507       .  S
C2859      C2860   1.406       .  A
C2859      O2864   1.372       .  S
C2860      C2861   1.404       .  A
C2860      H2865   1.083       .  S
C2861      C2862   1.414       .  A
C2862      O2866   1.372       .  S
C2863      C2868   1.418       .  A
C2863      C2872   1.407       .  A
O2864      H2880   0.992       .  S
O2866      H2877   0.991       .  S
C2868      C2869   1.409       .  A
C2868      O2873   1.372       .  S
C2869      C2870   1.404       .  A
C2869      H2874   1.083       .  S
C2870      C2871   1.408       .  A
C2871      C2872   1.404       .  A
C2871      O2875   1.373   1_556  S
C2872      H2876   1.083       .  S
O2873      H2878   0.993       .  S
O2875      H2879   0.992       .  S
C2881      C2882   1.408       .  A
C2881      C2886   1.406       .  A
C2881      H2891   1.083       .  S
C2882      C2883   1.408       .  A
C2882      C2887   1.490       .  S
C2883      C2884   1.399       .  A
C2883      O2888   1.372       .  S
C2884      C2885   1.405       .  A
C2884      H2889   1.084       .  S
C2885      C2886   1.408       .  A
C2886      O2890   1.372       .  S
C2887      C2892   1.408       .  A
C2887      C2896   1.407       .  A
O2888      H2904   0.991       .  S
O2890      H2901   0.992       .  S
C2892      C2893   1.398       .  A
C2892      O2897   1.372       .  S
C2893      C2894   1.407       .  A
C2893      H2898   1.084       .  S
C2894      C2895   1.410       .  A
C2895      C2896   1.406       .  A
C2895      O2899   1.371       .  S
C2896      H2900   1.083       .  S
O2897      H2902   0.992       .  S
O2899      H2903   0.992       .  S
C2905      C2906   1.411       .  A
C2905      C2910   1.406       .  A
C2905      H2915   1.082       .  S
C2906      C2907   1.414       .  A
C2906      C2911   1.509       .  S
C2907      C2908   1.405       .  A
C2907      O2912   1.371       .  S
C2908      C2909   1.408       .  A
C2908      H2913   1.083       .  S
C2909      C2910   1.410       .  A
C2910      O2914   1.372       .  S
C2911      C2916   1.413       .  A
C2911      C2920   1.412       .  A
O2912      H2928   0.991       .  S
O2914      H2925   0.992       .  S
C2916      C2917   1.404       .  A
C2916      O2921   1.373       .  S
C2917      C2918   1.404       .  A
C2917      H2922   1.082       .  S
C2918      C2919   1.412       .  A
C2919      C2920   1.409       .  A
C2919      O2923   1.370       .  S
C2920      H2924   1.082       .  S
O2921      H2926   0.992       .  S
O2923      H2927   0.991       .  S
C2929      C2930   1.403       .  A
C2929      C2934   1.400       .  A
C2929      H2939   1.084       .  S
C2930      C2931   1.412       .  A
C2930      C2935   1.491       .  S
C2931      C2932   1.408       .  A
C2931      O2936   1.371       .  S
C2932      C2933   1.405       .  A
C2932      H2937   1.083       .  S
C2933      C2934   1.411       .  A
C2934      O2938   1.372       .  S
C2935      C2940   1.410       .  A
C2935      C2944   1.403       .  A
O2936      H2952   0.992       .  S
O2938      H2949   0.992       .  S
C2940      C2941   1.406       .  A
C2940      O2945   1.372       .  S
C2941      C2942   1.405       .  A
C2941      H2946   1.083       .  S
C2942      C2943   1.415       .  A
C2943      C2944   1.404       .  A
C2943      O2947   1.372       .  S
C2944      H2948   1.084       .  S
O2945      H2950   0.991       .  S
O2947      H2951   0.993       .  S
C2953      C2954   1.396       .  A
C2953      C2958   1.389       .  A
C2953      H2963   1.085       .  S
C2954      C2955   1.404       .  A
C2954      C2959   1.466       .  S
C2955      C2956   1.403       .  A
C2955      O2960   1.371       .  S
C2956      C2957   1.407       .  A
C2956      H2961   1.083       .  S
C2957      C2958   1.413       .  A
C2958      O2962   1.372       .  S
C2959      C2964   1.403       .  A
C2959      C2968   1.403       .  A
O2960      H2976   0.991       .  S
O2962      H2973   0.992       .  S
C2964      C2965   1.396       .  A
C2964      O2969   1.372       .  S
C2965      C2966   1.401       .  A
C2965      H2970   1.083       .  S
C2966      C2967   1.402       .  A
C2967      C2968   1.396       .  A
C2967      O2971   1.367       .  S
C2968      H2972   1.084       .  S
O2969      H2974   0.992       .  S
O2971      H2975   0.991       .  S
C2977      C2978   1.401       .  A
C2977      C2982   1.397       .  A
C2977      H2987   1.084       .  S
C2978      C2979   1.407       .  A
C2978      C2983   1.469       .  S
C2979      C2980   1.395       .  A
C2979      O2984   1.375       .  S
C2980      C2981   1.396       .  A
C2980      H2985   1.076       .  S
C2981      C2982   1.407       .  A
C2982      O2986   1.372       .  S
C2983      C2988   1.406       .  A
C2983      C2992   1.402       .  A
O2984      H3000   0.992       .  S
O2986      H2997   0.992       .  S
C2988      C2989   1.392       .  A
C2988      O2993   1.374       .  S
C2989      C2990   1.400       .  A
C2989      H2994   1.081       .  S
C2990      C2991   1.408       .  A
C2991      C2992   1.400       .  A
C2991      O2995   1.372       .  S
C2992      H2996   1.084       .  S
O2993      H2998   0.992       .  S
O2995      H2999   0.992       .  S
C3001      C3002   1.399       .  A
C3001      C3006   1.392       .  A
C3001      H3011   1.084       .  S
C3002      C3003   1.404       .  A
C3002      C3007   1.471       .  S
C3003      C3004   1.402       .  A
C3003      O3008   1.372       .  S
C3004      C3005   1.406       .  A
C3004      H3009   1.083       .  S
C3005      C3006   1.410       .  A
C3006      O3010   1.373       .  S
C3007      C3012   1.410       .  A
C3007      C3016   1.399       .  A
O3008      H3024   0.992       .  S
O3010      H3021   0.992       .  S
C3012      C3013   1.403       .  A
C3012      O3017   1.371       .  S
C3013      C3014   1.401       .  A
C3013      H3018   1.084       .  S
C3014      C3015   1.408       .  A
C3015      C3016   1.389       .  A
C3015      O3019   1.372       .  S
C3016      H3020   1.084       .  S
O3017      H3022   0.992       .  S
O3019      H3023   0.992       .  S
C3025      C3026   1.406       .  A
C3025      C3030   1.402       .  A
C3025      H3035   1.083       .  S
C3026      C3027   1.416       .  A
C3026      C3031   1.501       .  S
C3027      C3028   1.403       .  A
C3027      O3032   1.372       .  S
C3028      C3029   1.403       .  A
C3028      H3033   1.084       .  S
C3029      C3030   1.412       .  A
C3030      O3034   1.372       .  S
C3031      C3036   1.417       .  A
C3031      C3040   1.406       .  A
O3032      H3048   0.992       .  S
O3034      H3045   0.992       .  S
C3036      C3037   1.404       .  A
C3036      O3041   1.371       .  S
C3037      C3038   1.403       .  A
C3037      H3042   1.083       .  S
C3038      C3039   1.410       .  A
C3039      C3040   1.400       .  A
C3039      O3043   1.371       .  S
C3040      H3044   1.083       .  S
O3041      H3046   0.992       .  S
O3043      H3047   0.992       .  S
C3049      C3050   1.404       .  A
C3049      C3054   1.400       .  A
C3049      H3059   1.083       .  S
C3050      C3051   1.415       .  A
C3050      C3055   1.495       .  S
C3051      C3052   1.404       .  A
C3051      O3056   1.372       .  S
C3052      C3053   1.404       .  A
C3052      H3057   1.084       .  S
C3053      C3054   1.411       .  A
C3054      O3058   1.372       .  S
C3055      C3060   1.414       .  A
C3055      C3064   1.405       .  A
O3056      H3072   0.992       .  S
O3058      H3069   0.992       .  S
C3060      C3061   1.402       .  A
C3060      O3065   1.371       .  S
C3061      C3062   1.403       .  A
C3061      H3066   1.083       .  S
C3062      C3063   1.411       .  A
C3063      C3064   1.401       .  A
C3063      O3067   1.372       .  S
C3064      H3068   1.083       .  S
O3065      H3070   0.992       .  S
O3067      H3071   0.992       .  S
C3073      C3074   1.411       .  A
C3073      C3078   1.410       .  A
C3073      H3083   1.083       .  S
C3074      C3075   1.408       .  A
C3074      C3079   1.499       .  S
C3075      C3076   1.400       .  A
C3075      O3080   1.372       .  S
C3076      C3077   1.410       .  A
C3076      H3081   1.083       .  S
C3077      C3078   1.411       .  A
C3078      O3082   1.371       .  S
C3079      C3084   1.410       .  A
C3079      C3088   1.410       .  A
O3080      H3096   0.992       .  S
O3082      H3093   0.992       .  S
C3084      C3085   1.402       .  A
C3084      O3089   1.371       .  S
C3085      C3086   1.405       .  A
C3085      H3090   1.084       .  S
C3086      C3087   1.409       .  A
C3087      C3088   1.408       .  A
C3087      O3091   1.372       .  S
C3088      H3092   1.083       .  S
O3089      H3094   0.992       .  S
O3091      H3095   0.992       .  S
C3097      C3098   1.406       .  A
C3097      C3102   1.404       .  A
C3097      H3107   1.083       .  S
C3098      C3099   1.416       .  A
C3098      C3103   1.505       .  S
C3099      C3100   1.410       .  A
C3099      O3104   1.371       .  S
C3100      C3101   1.405       .  A
C3100      H3105   1.083       .  S
C3101      C3102   1.410       .  A
C3102      O3106   1.372       .  S
C3103      C3108   1.414       .  A
C3103      C3112   1.408       .  A
O3104      H3120   0.991       .  S
O3106      H3117   0.992       .  S
C3108      C3109   1.408       .  A
C3108      O3113   1.372       .  S
C3109      C3110   1.406       .  A
C3109      H3114   1.084       .  S
C3110      C3111   1.411       .  A
C3111      C3112   1.409       .  A
C3111      O3115   1.372       .  S
C3112      H3116   1.083       .  S
O3113      H3118   0.992       .  S
O3115      H3119   0.991       .  S
C3121      C3122   1.405       .  A
C3121      C3126   1.401       .  A
C3121      H3131   1.082       .  S
C3122      C3123   1.416       .  A
C3122      C3127   1.501       .  S
C3123      C3124   1.405       .  A
C3123      O3128   1.371       .  S
C3124      C3125   1.403       .  A
C3124      H3129   1.083       .  S
C3125      C3126   1.411       .  A
C3126      O3130   1.372       .  S
C3127      C3132   1.415       .  A
C3127      C3136   1.403       .  A
O3128      H3144   0.992       .  S
O3130      H3141   0.992       .  S
C3132      C3133   1.409       .  A
C3132      O3137   1.372       .  S
C3133      C3134   1.407       .  A
C3133      H3138   1.083       .  S
C3134      C3135   1.416       .  A
C3135      C3136   1.400       .  A
C3135      O3139   1.372       .  S
C3136      H3140   1.083       .  S
O3137      H3142   0.993       .  S
O3139      H3143   0.991       .  S
C3145      C3146   1.408       .  A
C3145      C3150   1.404       .  A
C3145      H3155   1.082       .  S
C3146      C3147   1.414       .  A
C3146      C3151   1.505       .  S
C3147      C3148   1.406       .  A
C3147      O3152   1.371       .  S
C3148      C3149   1.407       .  A
C3148      H3153   1.082       .  S
C3149      C3150   1.412       .  A
C3150      O3154   1.371       .  S
C3151      C3156   1.413       .  A
C3151      C3160   1.411       .  A
O3152      H3168   0.992       .  S
O3154      H3165   0.992       .  S
C3156      C3157   1.403       .  A
C3156      O3161   1.372       .  S
C3157      C3158   1.404       .  A
C3157      H3162   1.084       .  S
C3158      C3159   1.410       .  A
C3159      C3160   1.408       .  A
C3159      O3163   1.371       .  S
C3160      H3164   1.083       .  S
O3161      H3166   0.993       .  S
O3163      H3167   0.991       .  S
C3169      C3170   1.405       .  A
C3169      C3174   1.398       .  A
C3169      H3179   1.083       .  S
C3170      C3171   1.416       .  A
C3170      C3175   1.501       .  S
C3171      C3172   1.410       .  A
C3171      O3176   1.371       .  S
C3172      C3173   1.405       .  A
C3172      H3177   1.083       .  S
C3173      C3174   1.408       .  A
C3174      O3178   1.371       .  S
C3175      C3180   1.414       .  A
C3175      C3184   1.405       .  A
O3176      H3192   0.992       .  S
O3178      H3189   0.991       .  S
C3180      C3181   1.404       .  A
C3180      O3185   1.371       .  S
C3181      C3182   1.405       .  A
C3181      H3186   1.083       .  S
C3182      C3183   1.417       .  A
C3183      C3184   1.406       .  A
C3183      O3187   1.371       .  S
C3184      H3188   1.083       .  S
O3185      H3190   0.991       .  S
O3187      H3191   0.992       .  S
C3193      C3194   1.403       .  A
C3193      C3198   1.401       .  A
C3193      H3203   1.083       .  S
C3194      C3195   1.402       .  A
C3194      C3199   1.465       .  S
C3195      C3196   1.387       .  A
C3195      O3200   1.373       .  S
C3196      C3197   1.405       .  A
C3196      H3201   1.084       .  S
C3197      C3198   1.410       .  A
C3198      O3202   1.371       .  S
C3199      C3204   1.409       .  A
C3199      C3208   1.397       .  A
O3200      H3216   0.992       .  S
O3202      H3213   0.992       .  S
C3204      C3205   1.397       .  A
C3204      O3209   1.371       .  S
C3205      C3206   1.399       .  A
C3205      H3210   1.084       .  S
C3206      C3207   1.408       .  A
C3207      C3208   1.393       .  A
C3207      O3211   1.373       .  S
C3208      H3212   1.084       .  S
O3209      H3214   0.991       .  S
O3211      H3215   0.992       .  S
C3217      C3218   1.407       .  A
C3217      C3222   1.401       .  A
C3217      H3227   1.083       .  S
C3218      C3219   1.407       .  A
C3218      C3223   1.478       .  S
C3219      C3220   1.394       .  A
C3219      O3224   1.372       .  S
C3220      C3221   1.401       .  A
C3220      H3225   1.084       .  S
C3221      C3222   1.404       .  A
C3222      O3226   1.371       .  S
C3223      C3228   1.405       .  A
C3223      C3232   1.406       .  A
O3224      H3240   0.991       .  S
O3226      H3237   0.991       .  S
C3228      C3229   1.391       .  A
C3228      O3233   1.373       .  S
C3229      C3230   1.405       .  A
C3229      H3234   1.084       .  S
C3230      C3231   1.409       .  A
C3231      C3232   1.403       .  A
C3231      O3235   1.371       .  S
C3232      H3236   1.083       .  S
O3233      H3238   0.992       .  S
O3235      H3239   0.992       .  S
C3241      C3242   1.411       .  A
C3241      C3246   1.407   1_655  A
C3241      H3251   1.082   1_655  S
C3242      C3243   1.417       .  A
C3242      C3247   1.515       .  S
C3243      C3244   1.409       .  A
C3243      O3248   1.371       .  S
C3244      C3245   1.408       .  A
C3244      H3249   1.083       .  S
C3245      C3246   1.414   1_655  A
C3246      O3250   1.371       .  S
C3247      C3252   1.415       .  A
C3247      C3256   1.413       .  A
O3248      H3264   0.991       .  S
O3250      H3261   0.992       .  S
C3252      C3253   1.404       .  A
C3252      O3257   1.371       .  S
C3253      C3254   1.407       .  A
C3253      H3258   1.083   1_554  S
C3254      C3255   1.410       .  A
C3255      C3256   1.413       .  A
C3255      O3259   1.373       .  S
C3256      H3260   1.082       .  S
O3257      H3262   0.992       .  S
O3259      H3263   0.992       .  S
C3265      C3266   1.407       .  A
C3265      C3270   1.407       .  A
C3265      H3275   1.082       .  S
C3266      C3267   1.418       .  A
C3266      C3271   1.511       .  S
C3267      C3268   1.408       .  A
C3267      O3272   1.371       .  S
C3268      C3269   1.406       .  A
C3268      H3273   1.083       .  S
C3269      C3270   1.418       .  A
C3270      O3274   1.372       .  S
C3271      C3276   1.418       .  A
C3271      C3280   1.407       .  A
O3272      H3288   0.991       .  S
O3274      H3285   0.991       .  S
C3276      C3277   1.412       .  A
C3276      O3281   1.372       .  S
C3277      C3278   1.405       .  A
C3277      H3282   1.083       .  S
C3278      C3279   1.408       .  A
C3279      C3280   1.405       .  A
C3279      O3283   1.374       .  S
C3280      H3284   1.082       .  S
O3281      H3286   0.993       .  S
O3283      H3287   0.990       .  S
C3289      C3290   1.406       .  A
C3289      C3294   1.398       .  A
C3289      H3299   1.084       .  S
C3290      C3291   1.414       .  A
C3290      C3295   1.497       .  S
C3291      C3292   1.410       .  A
C3291      O3296   1.373       .  S
C3292      C3293   1.403       .  A
C3292      H3297   1.083       .  S
C3293      C3294   1.406       .  A
C3294      O3298   1.372       .  S
C3295      C3300   1.415       .  A
C3295      C3304   1.406       .  A
O3296      H3312   0.992       .  S
O3298      H3309   0.991       .  S
C3300      C3301   1.410       .  A
C3300      O3305   1.372       .  S
C3301      C3302   1.404       .  A
C3301      H3306   1.083       .  S
C3302      C3303   1.408       .  A
C3303      C3304   1.398       .  A
C3303      O3307   1.372       .  S
C3304      H3308   1.084       .  S
O3305      H3310   0.992       .  S
O3307      H3311   0.991       .  S
C3313      C3314   1.398       .  A
C3313      C3318   1.391       .  A
C3313      H3323   1.084       .  S
C3314      C3315   1.410       .  A
C3314      C3319   1.468       .  S
C3315      C3316   1.400       .  A
C3315      O3320   1.373       .  S
C3316      C3317   1.398       .  A
C3316      H3321   1.084       .  S
C3317      C3318   1.408       .  A
C3318      O3322   1.372       .  S
C3319      C3324   1.403       .  A
C3319      C3328   1.404       .  A
O3320      H3336   0.992       .  S
O3322      H3333   0.992       .  S
C3324      C3325   1.389       .  A
C3324      O3329   1.374       .  S
C3325      C3326   1.405       .  A
C3325      H3330   1.084       .  S
C3326      C3327   1.408       .  A
C3327      C3328   1.401       .  A
C3327      O3331   1.371       .  S
C3328      H3332   1.083       .  S
O3329      H3334   0.992       .  S
O3331      H3335   0.992       .  S
C3337      C3338   1.399       .  A
C3337      C3342   1.400       .  A
C3337      H3347   1.084   1_556  S
C3338      C3339   1.405       .  A
C3338      C3343   1.465       .  S
C3339      C3340   1.393       .  A
C3339      O3344   1.373       .  S
C3340      C3341   1.400       .  A
C3340      H3345   1.082       .  S
C3341      C3342   1.411       .  A
C3342      O3346   1.371   1_556  S
C3343      C3348   1.407       .  A
C3343      C3352   1.398       .  A
O3344      H3360   0.991       .  S
O3346      H3357   0.992       .  S
C3348      C3349   1.395       .  A
C3348      O3353   1.373       .  S
C3349      C3350   1.397       .  A
C3349      H3354   1.080       .  S
C3350      C3351   1.407       .  A
C3351      C3352   1.397       .  A
C3351      O3355   1.372       .  S
C3352      H3356   1.084       .  S
O3353      H3358   0.991       .  S
O3355      H3359   0.991       .  S
C3361      C3362   1.399       .  A
C3361      C3366   1.392       .  A
C3361      H3371   1.084       .  S
C3362      C3363   1.406       .  A
C3362      C3367   1.473       .  S
C3363      C3364   1.402       .  A
C3363      O3368   1.371   1_565  S
C3364      C3365   1.406       .  A
C3364      H3369   1.084   1_565  S
C3365      C3366   1.406       .  A
C3366      O3370   1.371       .  S
C3367      C3372   1.408       .  A
C3367      C3376   1.402       .  A
O3368      H3384   0.992       .  S
O3370      H3381   0.992       .  S
C3372      C3373   1.394       .  A
C3372      O3377   1.374       .  S
C3373      C3374   1.399       .  A
C3373      H3378   1.080       .  S
C3374      C3375   1.408       .  A
C3375      C3376   1.400       .  A
C3375      O3379   1.371       .  S
C3376      H3380   1.084       .  S
O3377      H3382   0.992       .  S
O3379      H3383   0.991       .  S
C3385      C3386   1.401       .  A
C3385      C3390   1.393       .  A
C3385      H3395   1.084       .  S
C3386      C3387   1.410       .  A
C3386      C3391   1.483       .  S
C3387      C3388   1.406       .  A
C3387      O3392   1.372       .  S
C3388      C3389   1.407       .  A
C3388      H3393   1.083   1_565  S
C3389      C3390   1.408       .  A
C3390      O3394   1.372       .  S
C3391      C3396   1.411       .  A
C3391      C3400   1.404       .  A
O3392      H3408   0.991   1_565  S
O3394      H3405   0.991       .  S
C3396      C3397   1.395       .  A
C3396      O3401   1.374       .  S
C3397      C3398   1.398       .  A
C3397      H3402   1.082       .  S
C3398      C3399   1.408       .  A
C3399      C3400   1.403       .  A
C3399      O3403   1.371       .  S
C3400      H3404   1.083       .  S
O3401      H3406   0.992       .  S
O3403      H3407   0.991       .  S
C3409      C3410   1.411       .  A
C3409      C3414   1.407       .  A
C3409      H3419   1.082       .  S
C3410      C3411   1.414       .  A
C3410      C3415   1.509       .  S
C3411      C3412   1.404       .  A
C3411      O3416   1.371       .  S
C3412      C3413   1.408       .  A
C3412      H3417   1.083       .  S
C3413      C3414   1.410       .  A
C3414      O3418   1.371       .  S
C3415      C3420   1.413       .  A
C3415      C3424   1.413       .  A
O3416      H3432   0.991       .  S
O3418      H3429   0.992       .  S
C3420      C3421   1.402       .  A
C3420      O3425   1.371       .  S
C3421      C3422   1.406       .  A
C3421      H3426   1.084       .  S
C3422      C3423   1.410       .  A
C3423      C3424   1.412       .  A
C3423      O3427   1.373       .  S
C3424      H3428   1.082       .  S
O3425      H3430   0.992       .  S
O3427      H3431   0.992       .  S
C3433      C3434   1.404       .  A
C3433      C3438   1.403       .  A
C3433      H3443   1.083       .  S
C3434      C3435   1.415       .  A
C3434      C3439   1.502       .  S
C3435      C3436   1.412       .  A
C3435      O3440   1.371       .  S
C3436      C3437   1.407       .  A
C3436      H3441   1.083       .  S
C3437      C3438   1.409       .  A
C3438      O3442   1.373       .  S
C3439      C3444   1.413       .  A
C3439      C3448   1.408       .  A
O3440      H3456   0.992       .  S
O3442      H3453   0.991       .  S
C3444      C3445   1.405       .  A
C3444      O3449   1.372       .  S
C3445      C3446   1.403       .  A
C3445      H3450   1.084       .  S
C3446      C3447   1.410       .  A
C3447      C3448   1.411       .  A
C3447      O3451   1.371       .  S
C3448      H3452   1.083       .  S
O3449      H3454   0.992       .  S
O3451      H3455   0.992       .  S
C3457      C3458   1.409       .  A
C3457      C3462   1.406       .  A
C3457      H3467   1.083       .  S
C3458      C3459   1.410   1_554  A
C3458      C3463   1.492       .  S
C3459      C3460   1.397       .  A
C3459      O3464   1.372       .  S
C3460      C3461   1.404   1_556  A
C3460      H3465   1.084       .  S
C3461      C3462   1.407       .  A
C3462      O3466   1.373       .  S
C3463      C3468   1.409       .  A
C3463      C3472   1.408       .  A
O3464      H3480   0.992       .  S
O3466      H3477   0.991       .  S
C3468      C3469   1.399       .  A
C3468      O3473   1.372       .  S
C3469      C3470   1.408       .  A
C3469      H3474   1.083       .  S
C3470      C3471   1.410       .  A
C3471      C3472   1.404       .  A
C3471      O3475   1.371   1_554  S
C3472      H3476   1.083       .  S
O3473      H3478   0.991       .  S
O3475      H3479   0.992       .  S
C3481      C3482   1.404       .  A
C3481      C3486   1.406       .  A
C3481      H3491   1.083       .  S
C3482      C3483   1.406       .  A
C3482      C3487   1.478       .  S
C3483      C3484   1.393       .  A
C3483      O3488   1.373       .  S
C3484      C3485   1.397       .  A
C3484      H3489   1.075       .  S
C3485      C3486   1.411       .  A
C3486      O3490   1.372       .  S
C3487      C3492   1.408       .  A
C3487      C3496   1.403       .  A
O3488      H3504   0.992       .  S
O3490      H3501   0.992       .  S
C3492      C3493   1.393       .  A
C3492      O3497   1.372       .  S
C3493      C3494   1.398       .  A
C3493      H3498   1.080       .  S
C3494      C3495   1.411       .  A
C3495      C3496   1.405       .  A
C3495      O3499   1.372   1_455  S
C3496      H3500   1.083   1_455  S
O3497      H3502   0.992       .  S
O3499      H3503   0.992       .  S
C3505      C3506   1.407       .  A
C3505      C3510   1.401       .  A
C3505      H3515   1.084       .  S
C3506      C3507   1.404       .  A
C3506      C3511   1.471       .  S
C3507      C3508   1.392       .  A
C3507      O3512   1.373       .  S
C3508      C3509   1.404       .  A
C3508      H3513   1.084       .  S
C3509      C3510   1.405       .  A
C3510      O3514   1.371       .  S
C3511      C3516   1.409       .  A
C3511      C3520   1.398       .  A
O3512      H3528   0.992       .  S
O3514      H3525   0.992       .  S
C3516      C3517   1.405       .  A
C3516      O3521   1.373       .  S
C3517      C3518   1.404       .  A
C3517      H3522   1.084       .  S
C3518      C3519   1.408       .  A
C3519      C3520   1.389       .  A
C3519      O3523   1.372       .  S
C3520      H3524   1.084       .  S
O3521      H3526   0.992       .  S
O3523      H3527   0.992       .  S
C3529      C3530   1.403       .  A
C3529      C3534   1.403       .  A
C3529      H3539   1.083       .  S
C3530      C3531   1.407       .  A
C3530      C3535   1.477       .  S
C3531      C3532   1.393       .  A
C3531      O3536   1.372       .  S
C3532      C3533   1.400       .  A
C3532      H3537   1.081       .  S
C3533      C3534   1.409       .  A
C3534      O3538   1.371       .  S
C3535      C3540   1.406       .  A
C3535      C3544   1.401       .  A
O3536      H3552   0.992       .  S
O3538      H3549   0.991       .  S
C3540      C3541   1.405       .  A
C3540      O3545   1.371       .  S
C3541      C3542   1.407       .  A
C3541      H3546   1.084       .  S
C3542      C3543   1.406       .  A
C3543      C3544   1.392       .  A
C3543      O3547   1.370       .  S
C3544      H3548   1.084       .  S
O3545      H3550   0.991       .  S
O3547      H3551   0.991       .  S
C3553      C3554   1.407       .  A
C3553      C3558   1.401       .  A
C3553      H3563   1.083       .  S
C3554      C3555   1.406       .  A
C3554      C3559   1.474       .  S
C3555      C3556   1.390       .  A
C3555      O3560   1.373       .  S
C3556      C3557   1.403       .  A
C3556      H3561   1.084       .  S
C3557      C3558   1.405       .  A
C3558      O3562   1.371       .  S
C3559      C3564   1.406       .  A
C3559      C3568   1.406       .  A
O3560      H3576   0.992       .  S
O3562      H3573   0.991       .  S
C3564      C3565   1.391       .  A
C3564      O3569   1.372       .  S
C3565      C3566   1.402       .  A
C3565      H3570   1.084       .  S
C3566      C3567   1.406       .  A
C3567      C3568   1.401       .  A
C3567      O3571   1.371       .  S
C3568      H3572   1.084       .  S
O3569      H3574   0.992       .  S
O3571      H3575   0.991       .  S
C3577      C3578   1.409       .  A
C3577      C3582   1.410       .  A
C3577      H3587   1.082       .  S
C3578      C3579   1.418       .  A
C3578      C3583   1.514       .  S
C3579      C3580   1.407       .  A
C3579      O3584   1.371       .  S
C3580      C3581   1.405       .  A
C3580      H3585   1.083       .  S
C3581      C3582   1.415       .  A
C3582      O3586   1.372       .  S
C3583      C3588   1.419       .  A
C3583      C3592   1.407       .  A
O3584      H3600   0.992       .  S
O3586      H3597   0.992       .  S
C3588      C3589   1.412       .  A
C3588      O3593   1.371       .  S
C3589      C3590   1.406       .  A
C3589      H3594   1.083       .  S
C3590      C3591   1.412       .  A
C3591      C3592   1.403       .  A
C3591      O3595   1.371       .  S
C3592      H3596   1.082       .  S
O3593      H3598   0.992       .  S
O3595      H3599   0.992       .  S
C3601      C3602   1.405   1_655  A
C3601      C3606   1.401       .  A
C3601      H3611   1.082       .  S
C3602      C3603   1.417       .  A
C3602      C3607   1.500       .  S
C3603      C3604   1.406       .  A
C3603      O3608   1.371       .  S
C3604      C3605   1.403       .  A
C3604      H3609   1.083       .  S
C3605      C3606   1.407   1_455  A
C3606      O3610   1.373       .  S
C3607      C3612   1.416       .  A
C3607      C3616   1.402       .  A
O3608      H3624   0.992       .  S
O3610      H3621   0.991       .  S
C3612      C3613   1.409       .  A
C3612      O3617   1.373       .  S
C3613      C3614   1.405       .  A
C3613      H3618   1.083       .  S
C3614      C3615   1.417       .  A
C3615      C3616   1.398       .  A
C3615      O3619   1.371       .  S
C3616      H3620   1.083       .  S
O3617      H3622   0.992   1_455  S
O3619      H3623   0.992       .  S
C3625      C3626   1.408       .  A
C3625      C3630   1.403       .  A
C3625      H3635   1.082       .  S
C3626      C3627   1.417       .  A
C3626      C3631   1.509       .  S
C3627      C3628   1.409       .  A
C3627      O3632   1.371       .  S
C3628      C3629   1.407       .  A
C3628      H3633   1.082       .  S
C3629      C3630   1.409       .  A
C3630      O3634   1.372       .  S
C3631      C3636   1.415       .  A
C3631      C3640   1.409       .  A
O3632      H3648   0.991       .  S
O3634      H3645   0.992       .  S
C3636      C3637   1.407       .  A
C3636      O3641   1.372       .  S
C3637      C3638   1.405       .  A
C3637      H3642   1.083       .  S
C3638      C3639   1.414       .  A
C3639      C3640   1.410       .  A
C3639      O3643   1.372       .  S
C3640      H3644   1.083       .  S
O3641      H3646   0.992       .  S
O3643      H3647   0.992       .  S
C3649      C3650   1.410       .  A
C3649      C3654   1.406       .  A
C3649      H3659   1.083       .  S
C3650      C3651   1.410       .  A
C3650      C3655   1.499       .  S
C3651      C3652   1.404       .  A
C3651      O3656   1.373       .  S
C3652      C3653   1.409       .  A
C3652      H3657   1.083       .  S
C3653      C3654   1.410       .  A
C3654      O3658   1.371       .  S
C3655      C3660   1.416       .  A
C3655      C3664   1.406       .  A
O3656      H3672   0.992       .  S
O3658      H3669   0.992       .  S
C3660      C3661   1.407       .  A
C3660      O3665   1.371       .  S
C3661      C3662   1.403       .  A
C3661      H3666   1.083       .  S
C3662      C3663   1.408       .  A
C3663      C3664   1.398       .  A
C3663      O3667   1.372       .  S
C3664      H3668   1.083       .  S
O3665      H3670   0.992       .  S
O3667      H3671   0.991   1_565  S
C3673      C3674   1.404       .  A
C3673      C3678   1.398       .  A
C3673      H3683   1.083       .  S
C3674      C3675   1.416       .  A
C3674      C3679   1.498       .  S
C3675      C3676   1.408       .  A
C3675      O3680   1.371       .  S
C3676      C3677   1.402       .  A
C3676      H3681   1.083       .  S
C3677      C3678   1.409       .  A
C3678      O3682   1.373       .  S
C3679      C3684   1.414       .  A
C3679      C3688   1.403       .  A
O3680      H3696   0.992       .  S
O3682      H3693   0.996   1_545  S
C3684      C3685   1.408       .  A
C3684      O3689   1.372       .  S
C3685      C3686   1.404       .  A
C3685      H3690   1.083       .  S
C3686      C3687   1.417       .  A
C3687      C3688   1.402       .  A
C3687      O3691   1.372       .  S
C3688      H3692   1.083       .  S
O3689      H3694   0.991       .  S
O3691      H3695   0.991       .  S
C3697      C3698   1.411       .  A
C3697      C3702   1.406       .  A
C3697      H3707   1.082       .  S
C3698      C3699   1.413       .  A
C3698      C3703   1.506       .  S
C3699      C3700   1.403       .  A
C3699      O3704   1.371       .  S
C3700      C3701   1.405       .  A
C3700      H3705   1.083   1_455  S
C3701      C3702   1.409       .  A
C3702      O3706   1.369       .  S
C3703      C3708   1.412       .  A
C3703      C3712   1.411   1_565  A
O3704      H3720   0.992   1_455  S
O3706      H3717   0.991       .  S
C3708      C3709   1.405       .  A
C3708      O3713   1.373       .  S
C3709      C3710   1.408       .  A
C3709      H3714   1.083       .  S
C3710      C3711   1.410   1_565  A
C3711      C3712   1.409       .  A
C3711      O3715   1.371       .  S
C3712      H3716   1.083       .  S
O3713      H3718   0.992       .  S
O3715      H3719   0.991       .  S
C3721      C3722   1.408   1_655  A
C3721      C3726   1.403       .  A
C3721      H3731   1.083       .  S
C3722      C3723   1.416       .  A
C3722      C3727   1.505       .  S
C3723      C3724   1.407       .  A
C3723      O3728   1.374       .  S
C3724      C3725   1.402       .  A
C3724      H3729   1.080       .  S
C3725      C3726   1.408   1_455  A
C3726      O3730   1.372       .  S
C3727      C3732   1.413       .  A
C3727      C3736   1.411       .  A
O3728      H3744   0.992       .  S
O3730      H3741   0.992       .  S
C3732      C3733   1.400       .  A
C3732      O3737   1.371       .  S
C3733      C3734   1.406       .  A
C3733      H3738   1.084       .  S
C3734      C3735   1.412       .  A
C3735      C3736   1.409       .  A
C3735      O3739   1.371       .  S
C3736      H3740   1.083       .  S
O3737      H3742   0.991   1_455  S
O3739      H3743   0.992   1_455  S
C3745      C3746   1.404       .  A
C3745      C3750   1.399       .  A
C3745      H3755   1.083       .  S
C3746      C3747   1.416       .  A
C3746      C3751   1.501       .  S
C3747      C3748   1.411       .  A
C3747      O3752   1.371       .  S
C3748      C3749   1.406       .  A
C3748      H3753   1.083       .  S
C3749      C3750   1.412       .  A
C3750      O3754   1.372       .  S
C3751      C3756   1.415       .  A
C3751      C3760   1.407       .  A
O3752      H3768   0.991       .  S
O3754      H3765   0.992   1_655  S
C3756      C3757   1.404       .  A
C3756      O3761   1.371       .  S
C3757      C3758   1.402       .  A
C3757      H3762   1.081       .  S
C3758      C3759   1.409   1_655  A
C3759      C3760   1.406   1_455  A
C3759      O3763   1.372       .  S
C3760      H3764   1.083   1_655  S
O3761      H3766   0.992       .  S
O3763      H3767   0.991       .  S
C3769      C3770   1.400       .  A
C3769      C3774   1.392       .  A
C3769      H3779   1.084       .  S
C3770      C3771   1.407       .  A
C3770      C3775   1.475       .  S
C3771      C3772   1.403       .  A
C3771      O3776   1.371       .  S
C3772      C3773   1.407       .  A
C3772      H3777   1.083       .  S
C3773      C3774   1.409       .  A
C3774      O3778   1.374       .  S
C3775      C3780   1.409       .  A
C3775      C3784   1.402       .  A
O3776      H3792   0.991       .  S
O3778      H3789   0.992       .  S
C3780      C3781   1.393       .  A
C3780      O3785   1.374       .  S
C3781      C3782   1.396       .  A
C3781      H3786   1.081       .  S
C3782      C3783   1.408       .  A
C3783      C3784   1.402       .  A
C3783      O3787   1.372   1_655  S
C3784      H3788   1.083       .  S
O3785      H3790   0.992       .  S
O3787      H3791   0.991       .  S
C3793      C3794   1.401       .  A
C3793      C3798   1.398       .  A
C3793      H3803   1.083       .  S
C3794      C3795   1.406       .  A
C3794      C3799   1.465       .  S
C3795      C3796   1.390       .  A
C3795      O3800   1.375       .  S
C3796      C3797   1.394       .  A
C3796      H3801   1.075       .  S
C3797      C3798   1.407       .  A
C3798      O3802   1.372       .  S
C3799      C3804   1.407       .  A
C3799      C3808   1.400       .  A
O3800      H3816   0.992       .  S
O3802      H3813   0.991       .  S
C3804      C3805   1.391       .  A
C3804      O3809   1.374       .  S
C3805      C3806   1.397       .  A
C3805      H3810   1.081       .  S
C3806      C3807   1.409       .  A
C3807      C3808   1.398       .  A
C3807      O3811   1.371   1_545  S
C3808      H3812   1.084       .  S
O3809      H3814   0.992       .  S
O3811      H3815   0.992       .  S
C3817      C3818   1.401       .  A
C3817      C3822   1.402       .  A
C3817      H3827   1.083       .  S
C3818      C3819   1.403       .  A
C3818      C3823   1.468       .  S
C3819      C3820   1.391       .  A
C3819      O3824   1.373       .  S
C3820      C3821   1.403       .  A
C3820      H3825   1.084       .  S
C3821      C3822   1.411       .  A
C3822      O3826   1.371       .  S
C3823      C3828   1.408       .  A
C3823      C3832   1.399       .  A
O3824      H3840   0.992       .  S
O3826      H3837   0.992       .  S
C3828      C3829   1.398       .  A
C3828      O3833   1.373       .  S
C3829      C3830   1.397       .  A
C3829      H3834   1.081       .  S
C3830      C3831   1.407       .  A
C3831      C3832   1.396       .  A
C3831      O3835   1.371   1_565  S
C3832      H3836   1.084       .  S
O3833      H3838   0.992       .  S
O3835      H3839   0.991       .  S
C3841      C3842   1.406       .  A
C3841      C3846   1.402       .  A
C3841      H3851   1.084       .  S
C3842      C3843   1.406       .  A
C3842      C3847   1.477       .  S
C3843      C3844   1.396       .  A
C3843      O3848   1.374       .  S
C3844      C3845   1.404       .  A
C3844      H3849   1.084       .  S
C3845      C3846   1.405       .  A
C3846      O3850   1.371       .  S
C3847      C3852   1.407       .  A
C3847      C3856   1.404       .  A
O3848      H3864   0.992       .  S
O3850      H3861   0.991       .  S
C3852      C3853   1.392       .  A
C3852      O3857   1.372       .  S
C3853      C3854   1.404       .  A
C3853      H3858   1.084       .  S
C3854      C3855   1.409       .  A
C3855      C3856   1.402       .  A
C3855      O3859   1.371       .  S
C3856      H3860   1.083       .  S
O3857      H3862   0.992       .  S
O3859      H3863   0.991       .  S
C3865      C3866   1.406       .  A
C3865      C3870   1.404       .  A
C3865      H3875   1.083       .  S
C3866      C3867   1.414       .  A
C3866      C3871   1.497       .  S
C3867      C3868   1.404       .  A
C3867      O3872   1.372       .  S
C3868      C3869   1.404       .  A
C3868      H3873   1.084       .  S
C3869      C3870   1.411       .  A
C3870      O3874   1.372       .  S
C3871      C3876   1.414       .  A
C3871      C3880   1.405       .  A
O3872      H3888   0.992       .  S
O3874      H3885   0.991       .  S
C3876      C3877   1.407       .  A
C3876      O3881   1.371       .  S
C3877      C3878   1.403       .  A
C3877      H3882   1.083       .  S
C3878      C3879   1.411       .  A
C3879      C3880   1.400       .  A
C3879      O3883   1.372       .  S
C3880      H3884   1.083       .  S
O3881      H3886   0.992       .  S
O3883      H3887   0.992       .  S
C3889      C3890   1.409       .  A
C3889      C3894   1.404       .  A
C3889      H3899   1.083       .  S
C3890      C3891   1.414       .  A
C3890      C3895   1.501       .  S
C3891      C3892   1.403       .  A
C3891      O3896   1.371       .  S
C3892      C3893   1.406       .  A
C3892      H3897   1.083       .  S
C3893      C3894   1.411       .  A
C3894      O3898   1.372       .  S
C3895      C3900   1.413       .  A
C3895      C3904   1.410       .  A
O3896      H3912   0.991       .  S
O3898      H3909   0.992       .  S
C3900      C3901   1.401       .  A
C3900      O3905   1.371       .  S
C3901      C3902   1.404       .  A
C3901      H3906   1.084       .  S
C3902      C3903   1.408       .  A
C3903      C3904   1.404       .  A
C3903      O3907   1.371       .  S
C3904      H3908   1.082       .  S
O3905      H3910   0.991       .  S
O3907      H3911   0.991       .  S
C3913      C3914   1.410       .  A
C3913      C3918   1.407       .  A
C3913      H3923   1.083       .  S
C3914      C3915   1.411       .  A
C3914      C3919   1.497       .  S
C3915      C3916   1.400       .  A
C3915      O3920   1.371   1_545  S
C3916      C3917   1.402       .  A
C3916      H3921   1.084   1_645  S
C3917      C3918   1.406       .  A
C3918      O3922   1.371       .  S
C3919      C3924   1.411       .  A
C3919      C3928   1.410       .  A
O3920      H3936   0.992       .  S
O3922      H3933   0.991       .  S
C3924      C3925   1.400       .  A
C3924      O3929   1.372   1_545  S
C3925      C3926   1.405       .  A
C3925      H3930   1.083   1_545  S
C3926      C3927   1.406       .  A
C3927      C3928   1.406       .  A
C3927      O3931   1.371       .  S
C3928      H3932   1.083       .  S
O3929      H3934   0.992       .  S
O3931      H3935   0.991       .  S
C3937      C3938   1.405       .  A
C3937      C3942   1.401       .  A
C3937      H3947   1.084       .  S
C3938      C3939   1.403       .  A
C3938      C3943   1.468       .  S
C3939      C3940   1.391       .  A
C3939      O3944   1.373       .  S
C3940      C3941   1.402       .  A
C3940      H3945   1.085       .  S
C3941      C3942   1.404       .  A
C3942      O3946   1.370       .  S
C3943      C3948   1.405       .  A
C3943      C3952   1.401       .  A
O3944      H3960   0.992       .  S
O3946      H3957   0.991       .  S
C3948      C3949   1.388       .  A
C3948      O3953   1.373       .  S
C3949      C3950   1.403       .  A
C3949      H3954   1.084       .  S
C3950      C3951   1.411       .  A
C3951      C3952   1.402       .  A
C3951      O3955   1.371   1_556  S
C3952      H3956   1.083       .  S
O3953      H3958   0.992       .  S
O3955      H3959   0.991       .  S
C3961      C3962   1.404       .  A
C3961      C3966   1.402       .  A
C3961      H3971   1.084       .  S
C3962      C3963   1.403       .  A
C3962      C3967   1.467       .  S
C3963      C3964   1.392       .  A
C3963      O3968   1.372       .  S
C3964      C3965   1.404       .  A
C3964      H3969   1.084       .  S
C3965      C3966   1.405       .  A
C3966      O3970   1.371       .  S
C3967      C3972   1.403       .  A
C3967      C3976   1.395       .  A
O3968      H3984   0.992       .  S
O3970      H3981   0.992       .  S
C3972      C3973   1.403       .  A
C3972      O3977   1.371       .  S
C3973      C3974   1.409       .  A
C3973      H3978   1.083       .  S
C3974      C3975   1.416       .  A
C3975      C3976   1.390       .  A
C3975      O3979   1.372       .  S
C3976      H3980   1.085       .  S
O3977      H3982   0.992   1_455  S
O3979      H3983   0.991       .  S
C3985      C3986   1.405       .  A
C3985      C3990   1.402       .  A
C3985      H3995   1.084       .  S
C3986      C3987   1.402       .  A
C3986      C3991   1.465       .  S
C3987      C3988   1.391       .  A
C3987      O3992   1.372       .  S
C3988      C3989   1.404       .  A
C3988      H3993   1.083       .  S
C3989      C3990   1.406       .  A
C3990      O3994   1.371       .  S
C3991      C3996   1.404       .  A
C3991      C4000   1.394       .  A
O3992      H4008   0.992       .  S
O3994      H4005   0.992       .  S
C3996      C3997   1.404       .  A
C3996      O4001   1.371       .  S
C3997      C3998   1.408       .  A
C3997      H4002   1.083       .  S
C3998      C3999   1.417       .  A
C3999      C4000   1.389       .  A
C3999      O4003   1.373       .  S
C4000      H4004   1.085       .  S
O4001      H4006   0.992       .  S
O4003      H4007   0.992       .  S
C4009      C4010   1.398       .  A
C4009      C4014   1.390       .  A
C4009      H4019   1.084       .  S
C4010      C4011   1.409       .  A
C4010      C4015   1.470       .  S
C4011      C4012   1.402       .  A
C4011      O4016   1.371       .  S
C4012      C4013   1.403       .  A
C4012      H4017   1.083       .  S
C4013      C4014   1.410       .  A
C4014      O4018   1.372       .  S
C4015      C4020   1.408       .  A
C4015      C4024   1.398       .  A
O4016      H4032   0.992   1_556  S
O4018      H4029   0.991       .  S
C4020      C4021   1.402       .  A
C4020      O4025   1.372       .  S
C4021      C4022   1.403       .  A
C4021      H4026   1.084       .  S
C4022      C4023   1.411       .  A
C4023      C4024   1.392       .  A
C4023      O4027   1.372       .  S
C4024      H4028   1.084       .  S
O4025      H4030   0.991       .  S
O4027      H4031   0.992   1_556  S
C4033      C4034   1.410       .  A
C4033      C4038   1.409       .  A
C4033      H4043   1.083       .  S
C4034      C4035   1.414       .  A
C4034      C4039   1.512       .  S
C4035      C4036   1.410       .  A
C4035      O4040   1.371       .  S
C4036      C4037   1.410       .  A
C4036      H4041   1.083       .  S
C4037      C4038   1.413       .  A
C4038      O4042   1.371       .  S
C4039      C4044   1.412       .  A
C4039      C4048   1.411       .  A
O4040      H4056   0.992       .  S
O4042      H4053   0.992       .  S
C4044      C4045   1.406       .  A
C4044      O4049   1.371       .  S
C4045      C4046   1.408       .  A
C4045      H4050   1.083       .  S
C4046      C4047   1.415       .  A
C4047      C4048   1.415       .  A
C4047      O4051   1.372       .  S
C4048      H4052   1.083       .  S
O4049      H4054   0.992       .  S
O4051      H4055   0.991       .  S
C4057      C4058   1.411       .  A
C4057      C4062   1.412       .  A
C4057      H4067   1.083       .  S
C4058      C4059   1.413   1_455  A
C4058      C4063   1.509       .  S
C4059      C4060   1.406       .  A
C4059      O4064   1.371       .  S
C4060      C4061   1.406   1_655  A
C4060      H4065   1.084       .  S
C4061      C4062   1.412       .  A
C4062      O4066   1.371       .  S
C4063      C4068   1.412       .  A
C4063      C4072   1.409       .  A
O4064      H4080   0.992       .  S
O4066      H4077   0.991       .  S
C4068      C4069   1.407       .  A
C4068      O4073   1.372       .  S
C4069      C4070   1.410       .  A
C4069      H4074   1.083       .  S
C4070      C4071   1.414       .  A
C4071      C4072   1.411       .  A
C4071      O4075   1.372       .  S
C4072      H4076   1.083       .  S
O4073      H4078   0.992       .  S
O4075      H4079   0.991       .  S
C4081      C4082   1.409       .  A
C4081      C4086   1.410       .  A
C4081      H4091   1.083       .  S
C4082      C4083   1.415       .  A
C4082      C4087   1.507       .  S
C4083      C4084   1.404       .  A
C4083      O4088   1.372       .  S
C4084      C4085   1.405       .  A
C4084      H4089   1.083       .  S
C4085      C4086   1.413       .  A
C4086      O4090   1.372       .  S
C4087      C4092   1.416       .  A
C4087      C4096   1.407       .  A
O4088      H4104   0.992       .  S
O4090      H4101   0.992       .  S
C4092      C4093   1.409       .  A
C4092      O4097   1.371       .  S
C4093      C4094   1.406       .  A
C4093      H4098   1.083       .  S
C4094      C4095   1.412       .  A
C4095      C4096   1.403       .  A
C4095      O4099   1.372       .  S
C4096      H4100   1.083       .  S
O4097      H4102   0.991       .  S
O4099      H4103   0.991       .  S
C4105      C4106   1.404       .  A
C4105      C4110   1.397       .  A
C4105      H4115   1.082       .  S
C4106      C4107   1.415       .  A
C4106      C4111   1.497       .  S
C4107      C4108   1.406       .  A
C4107      O4112   1.372       .  S
C4108      C4109   1.406       .  A
C4108      H4113   1.082       .  S
C4109      C4110   1.408       .  A
C4110      O4114   1.370   1_545  S
C4111      C4116   1.414   1_554  A
C4111      C4120   1.405       .  A
O4112      H4128   0.992       .  S
O4114      H4125   0.992   1_554  S
C4116      C4117   1.404       .  A
C4116      O4121   1.373       .  S
C4117      C4118   1.403   1_556  A
C4117      H4122   1.083       .  S
C4118      C4119   1.414       .  A
C4119      C4120   1.403       .  A
C4119      O4123   1.373       .  S
C4120      H4124   1.083       .  S
O4121      H4126   0.992       .  S
O4123      H4127   0.991       .  S
C4129      C4130   1.406       .  A
C4129      C4134   1.404       .  A
C4129      H4139   1.083       .  S
C4130      C4131   1.414   1_545  A
C4130      C4135   1.497       .  S
C4131      C4132   1.402       .  A
C4131      O4136   1.372       .  S
C4132      C4133   1.402   1_565  A
C4132      H4137   1.084       .  S
C4133      C4134   1.411       .  A
C4134      O4138   1.372       .  S
C4135      C4140   1.416       .  A
C4135      C4144   1.405       .  A
O4136      H4152   0.992       .  S
O4138      H4149   0.992       .  S
C4140      C4141   1.406       .  A
C4140      O4145   1.371       .  S
C4141      C4142   1.403       .  A
C4141      H4146   1.083       .  S
C4142      C4143   1.409       .  A
C4143      C4144   1.398       .  A
C4143      O4147   1.372   1_445  S
C4144      H4148   1.083       .  S
O4145      H4150   0.992       .  S
O4147      H4151   0.992       .  S
C4153      C4154   1.408   1_655  A
C4153      C4158   1.407       .  A
C4153      H4163   1.083       .  S
C4154      C4155   1.414       .  A
C4154      C4159   1.507       .  S
C4155      C4156   1.409       .  A
C4155      O4160   1.371       .  S
C4156      C4157   1.407       .  A
C4156      H4161   1.084       .  S
C4157      C4158   1.412   1_455  A
C4158      O4162   1.371       .  S
C4159      C4164   1.412       .  A
C4159      C4168   1.411       .  A
O4160      H4176   0.992       .  S
O4162      H4173   0.992       .  S
C4164      C4165   1.407       .  A
C4164      O4169   1.372       .  S
C4165      C4166   1.407       .  A
C4165      H4170   1.084   1_554  S
C4166      C4167   1.408       .  A
C4167      C4168   1.412       .  A
C4167      O4171   1.371       .  S
C4168      H4172   1.083       .  S
O4169      H4174   0.992   1_454  S
O4171      H4175   0.992       .  S
C4177      C4178   1.405   1_554  A
C4177      C4182   1.403       .  A
C4177      H4187   1.082       .  S
C4178      C4179   1.417       .  A
C4178      C4183   1.501       .  S
C4179      C4180   1.406       .  A
C4179      O4184   1.371       .  S
C4180      C4181   1.403       .  A
C4180      H4185   1.083       .  S
C4181      C4182   1.408   1_556  A
C4182      O4186   1.373       .  S
C4183      C4188   1.416       .  A
C4183      C4192   1.402       .  A
O4184      H4200   0.992       .  S
O4186      H4197   0.991       .  S
C4188      C4189   1.411       .  A
C4188      O4193   1.372       .  S
C4189      C4190   1.406       .  A
C4189      H4194   1.083       .  S
C4190      C4191   1.417       .  A
C4191      C4192   1.400       .  A
C4191      O4195   1.372       .  S
C4192      H4196   1.083       .  S
O4193      H4198   0.992   1_556  S
O4195      H4199   0.991       .  S
C4201      C4202   1.408       .  A
C4201      C4206   1.409       .  A
C4201      H4211   1.083       .  S
C4202      C4203   1.409       .  A
C4202      C4207   1.497       .  S
C4203      C4204   1.404       .  A
C4203      O4208   1.372       .  S
C4204      C4205   1.409       .  A
C4204      H4209   1.084       .  S
C4205      C4206   1.411       .  A
C4206      O4210   1.371       .  S
C4207      C4212   1.409   1_565  A
C4207      C4216   1.408       .  A
O4208      H4224   0.993   1_565  S
O4210      H4221   0.992       .  S
C4212      C4213   1.403       .  A
C4212      O4217   1.372       .  S
C4213      C4214   1.406   1_545  A
C4213      H4218   1.084       .  S
C4214      C4215   1.409       .  A
C4215      C4216   1.410       .  A
C4215      O4219   1.373       .  S
C4216      H4220   1.083       .  S
O4217      H4222   0.992       .  S
O4219      H4223   0.992       .  S
C4225      C4226   1.407   1_455  A
C4225      C4230   1.401       .  A
C4225      H4235   1.083       .  S
C4226      C4227   1.416       .  A
C4226      C4231   1.504       .  S
C4227      C4228   1.414       .  A
C4227      O4232   1.372       .  S
C4228      C4229   1.405       .  A
C4228      H4233   1.084       .  S
C4229      C4230   1.408   1_655  A
C4230      O4234   1.372       .  S
C4231      C4236   1.416       .  A
C4231      C4240   1.407   1_655  A
O4232      H4248   0.992       .  S
O4234      H4245   0.991       .  S
C4236      C4237   1.410       .  A
C4236      O4241   1.371       .  S
C4237      C4238   1.406       .  A
C4237      H4242   1.083       .  S
C4238      C4239   1.407   1_655  A
C4239      C4240   1.402       .  A
C4239      O4243   1.372   1_556  S
C4240      H4244   1.083       .  S
O4241      H4246   0.991       .  S
O4243      H4247   0.991   1_554  S
