geometry optimzed in LAMMPS
_audit_creation_date              2020-11-30 
_audit_creation_method            'lammps2cif' 
_symmetry_space_group_name_H-M    'P1' 
_symmetry_Int_Tables_number       1 
_symmetry_cell_setting            triclinic 
loop_ 
_symmetry_equiv_pos_as_xyz 
  x,y,z 
_cell_length_a                    36.19737586 
_cell_length_b                    36.155977728019444 
_cell_length_c                    36.3010149651163 
_cell_angle_alpha                 89.85395836968523 
_cell_angle_beta                  90.2143287688933 
_cell_angle_gamma                 89.85650048826191 
loop_ 
_atom_site_label 
_atom_site_type_symbol 
_atom_site_fract_x 
_atom_site_fract_y 
_atom_site_fract_z 
_atom_site_charge 
C1          C  0.97687647  0.00683616  0.03248289     0.03700
C2          C  0.98435907  0.03352057  0.00556487     0.03700
C3          C  0.01529446  0.02967494  0.98285451     0.03700
C4          C  0.04009729  0.00060762  0.98883301     0.03700
C5          C  0.03174954  0.97300391  0.01449773     0.03700
C6          C  0.00077794  0.97669352  0.03724140     0.03700
O7          O  0.04846681  0.17577906  0.88084511    -0.78700
O8          O  0.95447963  0.33072827  0.87849051    -0.78700
O9          O  0.95604022  0.23793335  0.82210403    -0.78700
O10         O  0.04702974  0.26760938  0.82280754    -0.78700
O11         O  0.92130916  0.26775397  0.86301304    -0.78800
O12         O  0.08156180  0.23881802  0.86488827    -0.78700
O13         O  0.98550595  0.31752485  0.82919691    -0.78700
O14         O  0.01735560  0.18789089  0.83094719    -0.78700
C15         C  0.04206018  0.16862459  0.84725178     1.11000
C16         C  0.96027055  0.33666897  0.84463925     1.10900
C17         C  0.92954470  0.25958759  0.82977644     1.11000
C18         C  0.07290071  0.24551056  0.83138941     1.10900
O19         O  0.06048031  0.26890477  0.93746362    -0.78700
O20         O  0.94144166  0.23877584  0.93654981    -0.78800
O21         O  0.98659304  0.17173798  0.90415705    -0.78700
O22         O  0.01605060  0.33558415  0.90235562    -0.78700
O23         O  0.98790052  0.30073269  0.94420287    -0.78700
O24         O  0.01433826  0.20763196  0.94531843    -0.78700
O25         O  0.07886080  0.30007784  0.88988467    -0.78600
O26         O  0.92416649  0.20678347  0.88902058    -0.78700
Co27       Co  0.04698740  0.22579144  0.90642183     1.51500
Co28       Co  0.95561277  0.28136700  0.90502247     1.51700
Co29       Co  0.97403840  0.20582906  0.86190352     1.51600
Co30       Co  0.02900337  0.30060269  0.86139665     1.51500
O31         O  0.00142105  0.25339759  0.88312713    -1.40600
C32         C  0.08331034  0.29136711  0.92373350     1.10900
C33         C  0.91925628  0.21575481  0.92254496     1.11000
C34         C  0.99353450  0.18066844  0.93741677     1.11000
C35         C  0.00824997  0.32798689  0.93572845     1.10900
O36         O  0.86427065  0.04052565  0.17358228    -0.78700
O37         O  0.86200826  0.96542786  0.33541051    -0.78700
O38         O  0.81218123  0.95402409  0.24796777    -0.78700
O39         O  0.81435086  0.05511312  0.26055165    -0.78700
O40         O  0.85513503  0.92256596  0.27796766    -0.78800
O41         O  0.85858057  0.08440523  0.23090089    -0.78700
O42         O  0.81623906  0.99840251  0.31365803    -0.78700
O43         O  0.81694684  0.01021264  0.19511670    -0.78700
C44         C  0.83033835  0.03161518  0.17097632     1.11000
C45         C  0.82804983  0.97488876  0.33700414     1.10900
C46         C  0.82142354  0.92897426  0.27050712     1.11000
C47         C  0.82456394  0.07899321  0.23733045     1.10900
O48         O  0.93019454  0.06070569  0.26023394    -0.78700
O49         O  0.92734946  0.94356593  0.24896315    -0.78800
O50         O  0.88818835  0.97889468  0.17349792    -0.78700
O51         O  0.88866118  0.02605020  0.33556885    -0.78700
O52         O  0.93190514  0.99547855  0.30570927    -0.78700
O53         O  0.93233268  0.00810003  0.20370769    -0.78700
O54         O  0.88443264  0.08382316  0.29179374    -0.78600
O55         O  0.88046395  0.92238381  0.21750678    -0.78700
Co56       Co  0.89586894  0.04457228  0.22040661     1.51500
Co57       Co  0.89390646  0.96070099  0.28877754     1.51700
Co58       Co  0.84979559  0.96966342  0.21251172     1.51600
Co59       Co  0.85117059  0.03770271  0.29643339     1.51500
O60         O  0.87266629  0.00318681  0.25454380    -1.40600
C61         C  0.91847902  0.08483389  0.28263439     1.10900
C62         C  0.91447751  0.92030119  0.22628994     1.11000
C63         C  0.92217263  0.98579027  0.17894286     1.11000
C64         C  0.92240032  0.01819985  0.33028020     1.10900
C65         C  0.01729283  0.01220080  0.53300383     0.03700
C66         C  0.00923127  0.03900441  0.50629562     0.03700
C67         C  0.98037695  0.03319961  0.48114927     0.03700
C68         C  0.95772019  0.00199833  0.48470814     0.03700
C69         C  0.96488700  0.97588712  0.51244349     0.03700
C70         C  0.99413145  0.98153235  0.53708723     0.03700
O71         O  0.03974828  0.82844268  0.62764501    -0.78700
O72         O  0.95011775  0.67173664  0.63151059    -0.78700
O73         O  0.95311055  0.76197360  0.68971097    -0.78700
O74         O  0.04483860  0.73588114  0.68189899    -0.78700
O75         O  0.91586112  0.73347312  0.64988559    -0.78800
O76         O  0.07623456  0.76625663  0.63908781    -0.78700
O77         O  0.98487831  0.68811133  0.67739169    -0.78700
O78         O  0.01273586  0.81296296  0.67876631    -0.78700
C79         C  0.03542683  0.83372019  0.66190394     1.11000
C80         C  0.96064466  0.66650865  0.66454701     1.10900
C81         C  0.92609053  0.74065671  0.68282209     1.11000
C82         C  0.06975241  0.75844758  0.67271893     1.10900
O83         O  0.05261450  0.73735052  0.56701082    -0.78700
O84         O  0.92836032  0.76554587  0.57611353    -0.78800
O85         O  0.97669203  0.83162557  0.60795244    -0.78700
O86         O  0.00964007  0.67000533  0.60237207    -0.78700
O87         O  0.97715191  0.70514961  0.56369871    -0.78700
O88         O  0.00281538  0.79794821  0.56384178    -0.78700
O89         O  0.07302710  0.70518638  0.61334514    -0.78600
O90         O  0.91690782  0.79529523  0.62678617    -0.78700
Co91       Co  0.03856641  0.77939679  0.60010975     1.51500
Co92       Co  0.94729517  0.72205934  0.60548673     1.51700
Co93       Co  0.96804975  0.79589128  0.65000108     1.51600
Co94       Co  0.02510774  0.70400123  0.64351467     1.51500
O95         O  0.99472993  0.75036974  0.62477367    -1.40600
C96         C  0.07592603  0.71424618  0.57961269     1.10900
C97         C  0.90917063  0.78933428  0.59323746     1.11000
C98         C  0.98196920  0.82423778  0.57396012     1.11000
C99         C  0.99972136  0.67892698  0.56979115     1.10900
O100        O  0.17934583  0.87220819  0.05934014    -0.78700
O101        O  0.32784875  0.88675357  0.95295354    -0.78700
O102        O  0.23358634  0.82296692  0.95869910    -0.78700
O103        O  0.27459750  0.81310813  0.04547238    -0.78700
O104        O  0.27041557  0.86206978  0.92988372    -0.78800
O105        O  0.24476736  0.84871376  0.08659824    -0.78700
O106        O  0.32031436  0.83390686  0.98196192    -0.78700
O107        O  0.19124858  0.82854358  0.02034074    -0.78700
C108        C  0.17190902  0.84036424  0.04665573     1.11000
C109        C  0.33800326  0.85334709  0.95823622     1.10900
C110        C  0.25763369  0.82969702  0.93467253     1.11000
C111        C  0.25387157  0.81696196  0.07364290     1.10900
O112        O  0.27569149  0.92440235  0.07765719    -0.78700
O113        O  0.25111626  0.93703280  0.93528715    -0.78800
O114        O  0.17630421  0.90606435  0.99998993    -0.78700
O115        O  0.33430892  0.90227639  0.02104181    -0.78700
O116        O  0.29595481  0.94292136  0.99600492    -0.78700
O117        O  0.21357777  0.94060629  0.03441447    -0.78700
O118        O  0.30705046  0.87380526  0.08347618    -0.78600
O119        O  0.20696462  0.89575972  0.93236595    -0.78700
Co120      Co  0.23057337  0.89626095  0.06062380     1.51500
Co121      Co  0.27657667  0.90234041  0.96783554     1.51700
Co122      Co  0.20622505  0.86367552  0.98076700     1.51600
Co123      Co  0.30387891  0.85640165  0.03040921     1.51500
O124        O  0.25322202  0.87872122  0.01115622    -1.40600
C125        C  0.30129793  0.90671888  0.09381127     1.10900
C126        C  0.22241569  0.92525351  0.91974409     1.11000
C127        C  0.18800247  0.93747372  0.01073376     1.11000
C128        C  0.32361852  0.93552673  0.01558838     1.10900
O129        O  0.97754263  0.82404761  0.17935129    -0.78700
O130        O  0.00931037  0.69307716  0.17886722    -0.78700
O131        O  0.92252549  0.77896197  0.14953848    -0.78700
O132        O  0.07784631  0.74331056  0.16072760    -0.78700
O133        O  0.94970300  0.73882836  0.18679668    -0.78800
O134        O  0.03839081  0.77393769  0.19760911    -0.78700
O135        O  0.04718763  0.68122410  0.13427655    -0.78700
O136        O  0.94943740  0.83688936  0.12721963    -0.78700
C137        C  0.95466605  0.84415557  0.16113057     1.11000
C138        C  0.03491791  0.67323100  0.16602099     1.10900
C139        C  0.92643864  0.76414856  0.18113529     1.11000
C140        C  0.06514531  0.75139765  0.19270274     1.10900
O141        O  0.07846614  0.80692981  0.13912887    -0.78700
O142        O  0.92244476  0.71790531  0.11242977    -0.78800
O143        O  0.99036329  0.80387243  0.06983867    -0.78700
O144        O  0.02367397  0.72046608  0.06811951    -0.78700
O145        O  0.98765435  0.68346847  0.10122011    -0.78700
O146        O  0.01756895  0.83924272  0.11132759    -0.78700
O147        O  0.07103326  0.77874887  0.08720859    -0.78600
O148        O  0.92728122  0.76459485  0.07403236    -0.78700
Co149      Co  0.02517827  0.80630437  0.15602276     1.51500
Co150      Co  0.97035974  0.71234873  0.14480403     1.51700
Co151      Co  0.96102138  0.78555515  0.10984240     1.51600
Co152      Co  0.05114878  0.73341323  0.11285717     1.51500
O153        O  0.00313453  0.75814147  0.13176069    -1.40600
C154        C  0.08877269  0.80206619  0.10626286     1.10900
C155        C  0.91086233  0.73571500  0.08379438     1.11000
C156        C  0.01207190  0.82956503  0.07791576     1.11000
C157        C  0.99882432  0.69595983  0.07037355     1.10900
C158        C  0.23795405  0.72485747  0.27958700     0.03700
C159        C  0.21536990  0.73174358  0.24900387     0.03700
C160        C  0.22279476  0.76173448  0.22573547     0.03700
C161        C  0.24899313  0.78811820  0.23642904     0.03700
C162        C  0.27044517  0.78224214  0.26817612     0.03700
C163        C  0.26472157  0.75071023  0.28989793     0.03700
O164        O  0.17967056  0.66885191  0.51981870    -0.78700
O165        O  0.30416260  0.67290941  0.49836272    -0.78700
O166        O  0.22525089  0.62935824  0.58708813    -0.78700
O167        O  0.26291172  0.64074223  0.42700769    -0.78700
O168        O  0.25398573  0.67411488  0.55681791    -0.78800
O169        O  0.23144271  0.67999471  0.46191936    -0.78700
O170        O  0.32405362  0.62774376  0.46444031    -0.78700
O171        O  0.16516335  0.61773244  0.54799605    -0.78700
C172        C  0.15915020  0.65197436  0.54272603     1.11000
C173        C  0.32701470  0.66118987  0.47473581     1.10900
C174        C  0.23190850  0.66353594  0.58154987     1.11000
C175        C  0.25396323  0.67358710  0.43608041     1.10900
O176        O  0.20261239  0.61353965  0.42604217    -0.78700
O177        O  0.28718117  0.60572118  0.58462738    -0.78800
O178        O  0.19828224  0.55378251  0.51235199    -0.78700
O179        O  0.29408818  0.55789797  0.49182235    -0.78700
O180        O  0.32624357  0.59864123  0.52401718    -0.78700
O181        O  0.16396760  0.59705398  0.48539452    -0.78700
O182        O  0.23527235  0.56589704  0.44286859    -0.78600
O183        O  0.25729177  0.55845874  0.56287691    -0.78700
Co184      Co  0.19881543  0.63936528  0.47647112     1.51500
Co185      Co  0.28873599  0.63755194  0.53784149     1.51700
Co186      Co  0.21466786  0.59064983  0.54849745     1.51600
Co187      Co  0.27593209  0.59820044  0.46064114     1.51500
O188        O  0.24445742  0.61666877  0.50590843    -1.40600
C189        C  0.21275500  0.58029319  0.42028134     1.10900
C190        C  0.27987903  0.57135886  0.58625261     1.11000
C191        C  0.17227663  0.56321942  0.49082669     1.11000
C192        C  0.31955752  0.56545686  0.51443275     1.10900
C193        C  0.23394235  0.77143830  0.78342511     0.03700
C194        C  0.21134038  0.76533162  0.75274110     0.03700
C195        C  0.21810842  0.73522068  0.72948312     0.03700
C196        C  0.24706484  0.71071264  0.73751778     0.03700
C197        C  0.26988879  0.71702392  0.76805430     0.03700
C198        C  0.26240661  0.74653457  0.79175355     0.03700
O199        O  0.42135198  0.80164165  0.88443159    -0.78700
O200        O  0.57435061  0.70604974  0.87088388    -0.78700
O201        O  0.48922067  0.70841235  0.93493251    -0.78700
O202        O  0.51765043  0.80031776  0.93157015    -0.78700
O203        O  0.51331379  0.67265025  0.89150500    -0.78800
O204        O  0.48602971  0.83511036  0.89188993    -0.78700
O205        O  0.56570066  0.73788812  0.92084999    -0.78700
O206        O  0.44238501  0.76987334  0.93081322    -0.78700
C207        C  0.41926462  0.79303074  0.91832558     1.11000
C208        C  0.58359264  0.71275796  0.90393013     1.10900
C209        C  0.50934100  0.68150823  0.92527404     1.11000
C210        C  0.49542330  0.82668368  0.92474066     1.10900
O211        O  0.50780502  0.81337615  0.81706240    -0.78700
O212        O  0.47737210  0.69099404  0.82088978    -0.78800
O213        O  0.41485968  0.74011332  0.86086031    -0.78700
O214        O  0.57708372  0.76715563  0.84587926    -0.78700
O215        O  0.53809833  0.73898556  0.80764156    -0.78700
O216        O  0.44563672  0.76766667  0.81586584    -0.78700
O217        O  0.54435755  0.83013235  0.86158046    -0.78600
O218        O  0.45013937  0.67724109  0.87242167    -0.78700
Co219      Co  0.46806300  0.80020090  0.85259329     1.51500
Co220      Co  0.52276885  0.70683509  0.84847408     1.51700
Co221      Co  0.45343367  0.72674424  0.89884090     1.51600
Co222      Co  0.54656697  0.78098649  0.89006689     1.51500
O223        O  0.49772488  0.75368140  0.87248819    -1.40600
C224        C  0.53317893  0.83447199  0.82855117     1.10900
C225        C  0.45501338  0.67062486  0.83846623     1.11000
C226        C  0.42022343  0.74640200  0.82676395     1.11000
C227        C  0.56597685  0.75942440  0.81339407     1.10900
C228        C  0.72338709  0.25760263  0.72623926     0.03700
C229        C  0.75422476  0.28040703  0.73110307     0.03700
C230        C  0.77935824  0.27332676  0.75977870     0.03700
C231        C  0.77238655  0.24451767  0.78463038     0.03700
C232        C  0.74134234  0.22198263  0.77992048     0.03700
C233        C  0.71590873  0.22970276  0.75186653     0.03700
O234        O  0.88294137  0.41960331  0.79134840    -0.78700
O235        O  0.86544243  0.57503870  0.69437488    -0.78700
O236        O  0.92981608  0.48343068  0.69458642    -0.78700
O237        O  0.93382186  0.51801755  0.78794123    -0.78700
O238        O  0.88925261  0.51980937  0.66690030    -0.78800
O239        O  0.89770408  0.48418114  0.82485834    -0.78700
O240        O  0.91650870  0.56626836  0.72606378    -0.78700
O241        O  0.92648026  0.43601442  0.75362261    -0.78700
C242        C  0.91577753  0.41507469  0.77945982     1.11000
C243        C  0.89848952  0.58480325  0.70166117     1.10900
C244        C  0.92206047  0.50786782  0.67108170     1.11000
C245        C  0.92956023  0.49522682  0.81432499     1.10900
O246        O  0.82141347  0.51070829  0.81081991    -0.78700
O247        O  0.81580661  0.49944337  0.67097827    -0.78800
O248        O  0.85107818  0.41795138  0.73083307    -0.78700
O249        O  0.84519477  0.57722587  0.76098286    -0.78700
O250        O  0.80671747  0.53991856  0.73220596    -0.78700
O251        O  0.81233643  0.45098027  0.76421827    -0.78700
O252        O  0.86780585  0.54585413  0.82408041    -0.78600
O253        O  0.85727157  0.45526549  0.66651931    -0.78700
Co254      Co  0.85382025  0.46871630  0.79424433     1.51500
Co255      Co  0.84941281  0.52288725  0.70548696     1.51700
Co256      Co  0.89063297  0.45233552  0.71448737     1.51600
Co257      Co  0.89066625  0.54680171  0.77201122     1.51500
O258        O  0.87230528  0.49645214  0.74780355    -1.40600
C259        C  0.83477180  0.53601116  0.83088420     1.10900
C260        C  0.82747957  0.47124192  0.65463344     1.11000
C261        C  0.81844960  0.42740120  0.73937270     1.11000
C262        C  0.81253661  0.56634315  0.75371658     1.10900
O263        O  0.98680658  0.18176620  0.32783877    -0.78700
O264        O  0.01321057  0.30709842  0.31354129    -0.78700
O265        O  0.91959523  0.22991965  0.35391412    -0.78700
O266        O  0.07941941  0.26641727  0.35356737    -0.78700
O267        O  0.95445004  0.25514022  0.31007313    -0.78800
O268        O  0.04663718  0.23140599  0.31518908    -0.78700
O269        O  0.04252309  0.33000776  0.36039460    -0.78700
O270        O  0.95653377  0.17203318  0.37831772    -0.78700
C271        C  0.96228588  0.16354849  0.34503984     1.11000
C272        C  0.03427170  0.33201088  0.32631622     1.10900
C273        C  0.92807309  0.23437146  0.32001653     1.11000
C274        C  0.07166968  0.25518273  0.32118331     1.10900
O275        O  0.07880825  0.20771390  0.38511960    -0.78700
O276        O  0.92030540  0.29384120  0.37011907    -0.78800
O277        O  0.98614259  0.21263875  0.43977124    -0.78700
O278        O  0.01003883  0.30390975  0.42891604    -0.78700
O279        O  0.98050171  0.33239880  0.38308971    -0.78700
O280        O  0.01726103  0.17368641  0.40375224    -0.78700
O281        O  0.06089574  0.24412587  0.42907106    -0.78600
O282        O  0.93481843  0.26992762  0.42318858    -0.78700
Co283      Co  0.02920943  0.20291920  0.35778139     1.51500
Co284      Co  0.97038089  0.29283791  0.34530779     1.51700
Co285      Co  0.95366716  0.22433643  0.39801476     1.51600
Co286      Co  0.04405779  0.28297577  0.39274216     1.51500
O287        O  0.99940019  0.25076371  0.37347864    -1.40600
C288        C  0.08309207  0.21928404  0.41792510     1.10900
C289        C  0.91394940  0.29087395  0.40425195     1.11000
C290        C  0.00820406  0.18564795  0.43561114     1.11000
C291        C  0.98718254  0.32789588  0.41734741     1.10900
C292        C  0.24533133  0.28486148  0.22967639     0.03700
C293        C  0.22297279  0.27696754  0.26005292     0.03700
C294        C  0.23246416  0.24791173  0.28389900     0.03700
C295        C  0.26225435  0.22471799  0.27529036     0.03700
C296        C  0.28330008  0.23144918  0.24367600     0.03700
C297        C  0.27447983  0.26123378  0.22057654     0.03700
O298        O  0.18937060  0.33302274  0.98361549    -0.78700
O299        O  0.31909718  0.32990568  0.00933908    -0.78700
O300        O  0.23620003  0.36823693  0.91786905    -0.78700
O301        O  0.27313686  0.36319923  0.07657383    -0.78700
O302        O  0.26643571  0.32496979  0.94984042    -0.78800
O303        O  0.24170759  0.32271494  0.04261402    -0.78700
O304        O  0.33434657  0.37865545  0.04062283    -0.78700
O305        O  0.17558492  0.38390534  0.95461109    -0.78700
C306        C  0.16920285  0.34994848  0.96008381     1.11000
C307        C  0.33945098  0.34467838  0.03399619     1.10900
C308        C  0.24359783  0.33435304  0.92487649     1.11000
C309        C  0.26418934  0.33003769  0.06844953     1.10900
O310        O  0.21227674  0.38953999  0.07702912    -0.78700
O311        O  0.29773430  0.39240873  0.91882117    -0.78800
O312        O  0.20910922  0.44760113  0.98855699    -0.78700
O313        O  0.30249624  0.44533399  0.01009635    -0.78700
O314        O  0.33613473  0.40407177  0.97971701    -0.78700
O315        O  0.17451426  0.40557428  0.01674999    -0.78700
O316        O  0.24364269  0.43732925  0.05909614    -0.78600
O317        O  0.26784214  0.44037626  0.93887923    -0.78700
Co318      Co  0.20897025  0.36301701  0.02684695     1.51500
Co319      Co  0.30048173  0.36310892  0.96755779     1.51700
Co320      Co  0.22543874  0.40923979  0.95409973     1.51600
Co321      Co  0.28518158  0.40566139  0.04246789     1.51500
O322        O  0.25501045  0.38467539  0.99770323    -1.40600
C323        C  0.22146190  0.42317088  0.08190167     1.10900
C324        C  0.28946129  0.42651664  0.91536909     1.11000
C325        C  0.18308404  0.43910804  0.01023912     1.11000
C326        C  0.32826332  0.43744346  0.98793639     1.10900
C327        C  0.26912069  0.24386195  0.71832016     0.03700
C328        C  0.24031311  0.21976843  0.72725855     0.03700
C329        C  0.21721165  0.22780867  0.75707205     0.03700
C330        C  0.22451201  0.25851855  0.77944199     0.03700
C331        C  0.25384045  0.28213503  0.77085884     0.03700
C332        C  0.27670743  0.27420392  0.74092956     0.03700
O333        O  0.57757852  0.28709688  0.62799868    -0.78700
O334        O  0.42066093  0.19832910  0.61280692    -0.78700
O335        O  0.51875569  0.19607028  0.56508709    -0.78700
O336        O  0.49263490  0.28649226  0.56067407    -0.78700
O337        O  0.48443688  0.16261938  0.60353086    -0.78800
O338        O  0.51837657  0.32212304  0.60361840    -0.78700
O339        O  0.44218067  0.22767598  0.56552480    -0.78700
O340        O  0.56806976  0.25641943  0.57763176    -0.78700
C341        C  0.58624613  0.28102954  0.59484720     1.11000
C342        C  0.41806930  0.20617009  0.57877437     1.10900
C343        C  0.49553586  0.17050591  0.57108473     1.11000
C344        C  0.51404806  0.31250544  0.57000639     1.10900
O345        O  0.48008238  0.30713908  0.67390475    -0.78700
O346        O  0.50783572  0.18214760  0.67905572    -0.78800
O347        O  0.57701672  0.22602491  0.65321681    -0.78700
O348        O  0.41764079  0.26050819  0.63572330    -0.78700
O349        O  0.44786342  0.23099835  0.68044344    -0.78700
O350        O  0.53845532  0.25700206  0.68980151    -0.78700
O351        O  0.45495822  0.32130909  0.62133532    -0.78600
O352        O  0.54325184  0.16414457  0.63453127    -0.78700
Co353      Co  0.52543695  0.28890417  0.64803955     1.51500
Co354      Co  0.46830519  0.19762624  0.64362260     1.51700
Co355      Co  0.54739752  0.21378867  0.60751301     1.51600
Co356      Co  0.45607899  0.27090331  0.59681393     1.51500
O357        O  0.49933481  0.24277150  0.62399017    -1.40600
C358        C  0.45859156  0.32782555  0.65541700     1.10900
C359        C  0.53215380  0.15990713  0.66743257     1.11000
C360        C  0.56568699  0.23533452  0.68523820     1.11000
C361        C  0.42316657  0.25345866  0.66978950     1.10900
O362        O  0.33148083  0.99305881  0.19641082    -0.78700
O363        O  0.33500691  0.01647507  0.31956699    -0.78700
O364        O  0.36462631  0.92193279  0.23882893    -0.78700
O365        O  0.37459776  0.08415240  0.27316175    -0.78700
O366        O  0.32498134  0.95747977  0.26896979    -0.78800
O367        O  0.32998919  0.05299777  0.24530862    -0.78700
O368        O  0.38537360  0.04600411  0.33408318    -0.78700
O369        O  0.37663403  0.95852712  0.17715681    -0.78700
C370        C  0.34312818  0.96877798  0.17408139     1.11000
C371        C  0.35135033  0.03957278  0.34031961     1.10900
C372        C  0.33165152  0.93103430  0.24718123     1.11000
C373        C  0.34049190  0.07826995  0.26688449     1.10900
O374        O  0.39804151  0.08070022  0.21125158    -0.78700
O375        O  0.39181360  0.92279335  0.29932933    -0.78800
O376        O  0.44659187  0.98723837  0.20591372    -0.78700
O377        O  0.45041210  0.00985160  0.30248871    -0.78700
O378        O  0.40705979  0.98343787  0.33654157    -0.78700
O379        O  0.40488554  0.01862888  0.17372306    -0.78700
O380        O  0.44542323  0.05993683  0.24205662    -0.78600
O381        O  0.43932026  0.93858541  0.26638546    -0.78700
Co382      Co  0.36648542  0.03331094  0.21094967     1.51500
Co383      Co  0.36528691  0.97320173  0.30149965     1.51700
Co384      Co  0.40668141  0.95589566  0.22519969     1.51600
Co385      Co  0.41324775  0.04572729  0.28487977     1.51500
O386        O  0.38784932  0.00209215  0.25567787    -1.40600
C387        C  0.43235008  0.08299409  0.21888915     1.10900
C388        C  0.42513652  0.91681526  0.28982531     1.11000
C389        C  0.43823141  0.00913296  0.17987732     1.11000
C390        C  0.44087277  0.98877585  0.32873467     1.10900
C391        C  0.47449046  0.01885327  0.51230927     0.03700
C392        C  0.46434567  0.99153702  0.48705046     0.03700
C393        C  0.48690764  0.96049915  0.48212000     0.03700
C394        C  0.51661637  0.95407252  0.50609318     0.03700
C395        C  0.52617768  0.98079528  0.53226071     0.03700
C396        C  0.50473933  0.01292086  0.53567166     0.03700
O397        O  0.42844557  0.72290568  0.43018231    -0.78700
O398        O  0.55415471  0.74440326  0.43172457    -0.78700
O399        O  0.47021889  0.65875016  0.38599534    -0.78700
O400        O  0.51207563  0.81721863  0.40725776    -0.78700
O401        O  0.50133031  0.68512585  0.43189706    -0.78800
O402        O  0.48152701  0.77936477  0.44476329    -0.78700
O403        O  0.57149124  0.78045539  0.38707667    -0.78700
O404        O  0.41107319  0.70006444  0.37753315    -0.78700
C405        C  0.40667132  0.70214686  0.41212522     1.11000
C406        C  0.57637671  0.76885868  0.41975545     1.10900
C407        C  0.47845653  0.66124671  0.42010826     1.11000
C408        C  0.50393231  0.80578996  0.43954660     1.10900
O409        O  0.45046283  0.82109277  0.38357549    -0.78700
O410        O  0.53172880  0.66114611  0.36215803    -0.78800
O411        O  0.44377602  0.73951464  0.31622445    -0.78700
O412        O  0.53721276  0.75885207  0.31827054    -0.78700
O413        O  0.57043970  0.72241575  0.35525815    -0.78700
O414        O  0.41124108  0.76404167  0.36199580    -0.78700
O415        O  0.47994084  0.81073503  0.33258106    -0.78600
O416        O  0.50160661  0.68586534  0.31641137    -0.78700
Co417      Co  0.44715668  0.76855893  0.40425037     1.51500
Co418      Co  0.53524877  0.70665525  0.39538149     1.51700
Co419      Co  0.45993366  0.70012029  0.34996007     1.51600
Co420      Co  0.52177611  0.78745660  0.36128966     1.51500
O421        O  0.49101202  0.74065545  0.37782631    -1.40600
C422        C  0.45726885  0.83049372  0.35053724     1.10900
C423        C  0.52378914  0.66112380  0.32803691     1.11000
C424        C  0.41873624  0.76112590  0.32780831     1.11000
C425        C  0.56262267  0.73514223  0.32329169     1.10900
O426        O  0.58290006  0.93071748  0.76306881    -0.78700
O427        O  0.57833385  0.05851800  0.72968910    -0.78700
O428        O  0.60936760  0.98023279  0.82744075    -0.78700
O429        O  0.61548024  0.01063798  0.66859577    -0.78700
O430        O  0.56852911  0.00803118  0.79009258    -0.78800
O431        O  0.57427137  0.97935858  0.70179487    -0.78700
O432        O  0.62930203  0.07374545  0.70232990    -0.78700
O433        O  0.63225108  0.91917971  0.79510635    -0.78700
C434        C  0.59877742  0.91201067  0.78824659     1.11000
C435        C  0.59504800  0.07906787  0.70674854     1.10900
C436        C  0.57608673  0.98715027  0.81737046     1.11000
C437        C  0.58215922  0.00212206  0.67637817     1.10900
O438        O  0.64227773  0.95020370  0.67152955    -0.78700
O439        O  0.62998045  0.04276246  0.82535754    -0.78800
O440        O  0.69676768  0.95437292  0.76603202    -0.78700
O441        O  0.69364805  0.04367413  0.73802203    -0.78700
O442        O  0.64965655  0.07744667  0.76474925    -0.78700
O443        O  0.65853856  0.91722950  0.73502234    -0.78700
O444        O  0.68917431  0.98259116  0.68967873    -0.78600
O445        O  0.68204091  0.01495090  0.81445392    -0.78700
Co446      Co  0.61462524  0.94872034  0.72081987     1.51500
Co447      Co  0.60751021  0.04209045  0.77434161     1.51700
Co448      Co  0.65466423  0.97030442  0.79625488     1.51600
Co449      Co  0.65630820  0.02459427  0.70395975     1.51500
O450        O  0.63314262  0.99640475  0.74885748    -1.40600
C451        C  0.67568727  0.95982479  0.66687430     1.10900
C452        C  0.66360126  0.03777174  0.83351443     1.11000
C453        C  0.69107446  0.92734509  0.74437643     1.11000
C454        C  0.68368748  0.06990594  0.75894251     1.10900
C455        C  0.49955643  0.02416772  0.02585193     0.03700
C456        C  0.47255969  0.99773198  0.01802299     0.03700
C457        C  0.47755185  0.97282034  0.98897494     0.03700
C458        C  0.50868157  0.97585927  0.96635395     0.03700
C459        C  0.53589100  0.00203625  0.97444678     0.03700
C460        C  0.53032732  0.02746080  0.00289912     0.03700
O461        O  0.44807148  0.26199659  0.05966426    -0.78700
O462        O  0.56739584  0.24237888  0.06465691    -0.78700
O463        O  0.48605182  0.33182282  0.10206344    -0.78700
O464        O  0.52642480  0.16863673  0.09661147    -0.78700
O465        O  0.51768079  0.30156485  0.05971307    -0.78800
O466        O  0.49903043  0.20342584  0.05424740    -0.78700
O467        O  0.58548664  0.20813211  0.11075300    -0.78700
O468        O  0.42553639  0.29113382  0.10684072    -0.78700
C469        C  0.42377717  0.28370630  0.07249201     1.11000
C470        C  0.58962373  0.21838856  0.07735467     1.10900
C471        C  0.49505026  0.32663480  0.06867137     1.11000
C472        C  0.52035327  0.17704942  0.06305473     1.10900
O473        O  0.46423069  0.16944509  0.11866839    -0.78700
O474        O  0.54667009  0.32940894  0.12985812    -0.78800
O475        O  0.45447440  0.25678050  0.17486072    -0.78700
O476        O  0.55156192  0.23601969  0.17911068    -0.78700
O477        O  0.58526218  0.26788019  0.13937959    -0.78700
O478        O  0.42414569  0.22881868  0.12980570    -0.78700
O479        O  0.49352969  0.18401984  0.16905474    -0.78600
O480        O  0.51273402  0.30870392  0.17469494    -0.78700
Co481      Co  0.46298931  0.21912983  0.09138590     1.51500
Co482      Co  0.55015521  0.28209562  0.09860049     1.51700
Co483      Co  0.47285896  0.29283609  0.13920469     1.51600
Co484      Co  0.53607393  0.20362059  0.13858810     1.51500
O485        O  0.50553325  0.24941273  0.11722941    -1.40600
C486        C  0.47009068  0.16350446  0.15278308     1.10900
C487        C  0.53635036  0.33203962  0.16325333     1.11000
C488        C  0.42950599  0.23502417  0.16391950     1.11000
C489        C  0.57690007  0.25906667  0.17228270     1.10900
O490        O  0.16996203  0.12109444  0.45409950    -0.78700
O491        O  0.32125167  0.11642244  0.55326307    -0.78700
O492        O  0.23296124  0.18154897  0.54355043    -0.78700
O493        O  0.26589034  0.17466328  0.45693627    -0.78700
O494        O  0.25907020  0.14118088  0.58240123    -0.78800
O495        O  0.23472594  0.13410512  0.42269768    -0.78700
O496        O  0.31278198  0.16531650  0.51954094    -0.78700
O497        O  0.18429898  0.17192781  0.48220751    -0.78700
C498        C  0.16430216  0.15543277  0.45859067     1.11000
C499        C  0.33065169  0.14910820  0.54507970     1.10900
C500        C  0.25356297  0.17428167  0.57101062     1.11000
C501        C  0.24412136  0.16727158  0.43047566     1.10900
O502        O  0.26147713  0.05981179  0.44422929    -0.78700
O503        O  0.22399804  0.06816685  0.56995973    -0.78800
O504        O  0.16404738  0.10058875  0.51678442    -0.78700
O505        O  0.32439318  0.08880531  0.49324175    -0.78700
O506        O  0.28535063  0.05223491  0.52383680    -0.78700
O507        O  0.19834974  0.05628206  0.49113506    -0.78700
O508        O  0.29526408  0.10634246  0.42797901    -0.78600
O509        O  0.19623261  0.12045902  0.57929590    -0.78700
Co510      Co  0.21905025  0.09342768  0.45758254     1.51500
Co511      Co  0.26942589  0.09513206  0.55256447     1.51700
Co512      Co  0.19917600  0.14256221  0.52753818     1.51600
Co513      Co  0.29473437  0.13360476  0.47741559     1.51500
O514        O  0.24559127  0.11636418  0.50375581    -1.40600
C515        C  0.28605244  0.07288626  0.42296708     1.10900
C516        C  0.20075149  0.08680390  0.58828696     1.11000
C517        C  0.17160657  0.06646722  0.51132503     1.11000
C518        C  0.31313986  0.05674050  0.50306292     1.10900
C519        C  0.74886581  0.78410560  0.27293593     0.03700
C520        C  0.77454975  0.77802976  0.24484026     0.03700
C521        C  0.76714053  0.75174614  0.21759628     0.03700
C522        C  0.73552589  0.72963266  0.21992776     0.03700
C523        C  0.70948630  0.73629673  0.24748134     0.03700
C524        C  0.71672749  0.76266382  0.27466142     0.03700
O525        O  0.62254283  0.57667289  0.29413224    -0.78700
O526        O  0.62996302  0.42555319  0.19508142    -0.78700
O527        O  0.56561556  0.51388459  0.20263610    -0.78700
O528        O  0.57059920  0.48023031  0.28952119    -0.78700
O529        O  0.60710935  0.48838834  0.16510102    -0.78800
O530        O  0.60986277  0.51153779  0.32500284    -0.78700
O531        O  0.58062750  0.43377146  0.22772849    -0.78700
O532        O  0.57293052  0.56163880  0.26416066    -0.78700
C533        C  0.58831807  0.58154418  0.28850255     1.11000
C534        C  0.59698621  0.41618916  0.20227846     1.10900
C535        C  0.57374253  0.49363175  0.17537834     1.11000
C536        C  0.57705329  0.50203372  0.31597492     1.10900
O537        O  0.68501505  0.48661014  0.30448230    -0.78700
O538        O  0.67956554  0.52317086  0.17993875    -0.78800
O539        O  0.64468707  0.58362172  0.23228405    -0.78700
O540        O  0.65658874  0.42182300  0.25578034    -0.78700
O541        O  0.69406076  0.46111167  0.22685431    -0.78700
O542        O  0.68863589  0.54964895  0.25908705    -0.78700
O543        O  0.63920256  0.45183343  0.32047415    -0.78600
O544        O  0.62761772  0.55133627  0.16918676    -0.78700
Co545      Co  0.65100039  0.52819464  0.29122142     1.51500
Co546      Co  0.65200506  0.47747666  0.19652084     1.51700
Co547      Co  0.60373755  0.54784387  0.21996040     1.51600
Co548      Co  0.61198101  0.45170888  0.27050639     1.51500
O549        O  0.62953266  0.50130204  0.24451067    -1.40600
C550        C  0.67231441  0.46220073  0.32598302     1.10900
C551        C  0.66144280  0.54680651  0.16119164     1.11000
C552        C  0.67868255  0.57644908  0.23873235     1.11000
C553        C  0.68890461  0.43332946  0.24769277     1.10900
C554        C  0.78319905  0.22857238  0.24588798     0.03700
C555        C  0.75989033  0.22458397  0.21524634     0.03700
C556        C  0.73168917  0.25041367  0.20875393     0.03700
C557        C  0.72576500  0.27917939  0.23381196     0.03700
C558        C  0.75014658  0.28411238  0.26339586     0.03700
C559        C  0.77765159  0.25778287  0.27050417     0.03700
C560        C  0.72075367  0.73846698  0.77323302     0.03700
C561        C  0.74955912  0.71333276  0.76733808     0.03700
C562        C  0.77473039  0.71922424  0.73868541     0.03700
C563        C  0.76912370  0.74862700  0.71415593     0.03700
C564        C  0.74076204  0.77415906  0.72043337     0.03700
C565        C  0.71539079  0.76790166  0.74870935     0.03700
O566        O  0.17218813  0.98605867  0.81955087    -0.78700
O567        O  0.17428074  0.00478423  0.69610672    -0.78700
O568        O  0.13240958  0.91690585  0.77753292    -0.78700
O569        O  0.13971381  0.07787168  0.73564804    -0.78700
O570        O  0.17676414  0.94683480  0.74807332    -0.78800
O571        O  0.18080922  0.04427534  0.76650255    -0.78700
O572        O  0.12844105  0.03821119  0.67578920    -0.78700
O573        O  0.12157250  0.95800458  0.83576457    -0.78700
C574        C  0.15578829  0.96334399  0.84086673     1.11000
C575        C  0.16195326  0.02790227  0.67268216     1.10900
C576        C  0.16646634  0.92214168  0.77046866     1.11000
C577        C  0.17302030  0.06976268  0.74374999     1.10900
O578        O  0.11327692  0.07922182  0.79624122    -0.78700
O579        O  0.10820094  0.91769624  0.71603629    -0.78800
O580        O  0.05677337  0.99236554  0.80367931    -0.78700
O581        O  0.05924581  0.00963838  0.70642669    -0.78700
O582        O  0.10095947  0.97775184  0.67531450    -0.78700
O583        O  0.10048664  0.02023752  0.83639081    -0.78700
O584        O  0.06591477  0.06080933  0.76412952    -0.78600
O585        O  0.06105380  0.93988182  0.74579212    -0.78700
Co586      Co  0.14136783  0.02921185  0.80034882     1.51500
Co587      Co  0.13974090  0.96500521  0.71301635     1.51700
Co588      Co  0.09362330  0.95586542  0.78735193     1.51600
Co589      Co  0.09856944  0.04256194  0.72369644     1.51500
O590        O  0.11854361  0.99817563  0.75614416    -1.40600
C591        C  0.07951614  0.08379379  0.78674569     1.10900
C592        C  0.07401008  0.91569450  0.72408163     1.11000
C593        C  0.06660796  0.01403860  0.82932454     1.11000
C594        C  0.06756487  0.98653078  0.68170626     1.10900
O595        O  0.75899031  0.42046977  0.55844478    -0.78700
O596        O  0.73152002  0.41692928  0.43013093    -0.78700
O597        O  0.82509231  0.38616772  0.51259818    -0.78700
O598        O  0.66557580  0.38123148  0.47821980    -0.78700
O599        O  0.79050216  0.42651576  0.48135703    -0.78800
O600        O  0.69803427  0.42496218  0.50658101    -0.78700
O601        O  0.70170879  0.36653108  0.41698385    -0.78700
O602        O  0.78964117  0.37103757  0.57377511    -0.78700
C603        C  0.78347365  0.40497475  0.57881816     1.11000
C604        C  0.70787158  0.40034445  0.41012645     1.10900
C605        C  0.81639244  0.41935822  0.50383117     1.11000
C606        C  0.67265595  0.41522887  0.48446194     1.10900
O607        O  0.66795555  0.35695606  0.53967646    -0.78700
O608        O  0.82443879  0.35929365  0.45261269    -0.78800
O609        O  0.75844761  0.30467884  0.54484531    -0.78700
O610        O  0.73625341  0.30206702  0.44982077    -0.78700
O611        O  0.76404250  0.34397313  0.41489849    -0.78700
O612        O  0.72880362  0.34715568  0.57769739    -0.78700
O613        O  0.68845072  0.30934234  0.50947542    -0.78600
O614        O  0.80643465  0.31173109  0.48440001    -0.78700
Co615      Co  0.71640815  0.38724959  0.54112605     1.51500
Co616      Co  0.77456179  0.38633760  0.44923643     1.51700
Co617      Co  0.79083492  0.34381540  0.52560348     1.51600
Co618      Co  0.70202605  0.34055559  0.46673497     1.51500
O619        O  0.74587629  0.36498538  0.49567075    -1.40600
C620        C  0.66522722  0.32267300  0.53168842     1.10900
C621        C  0.82926127  0.32574509  0.46219892     1.11000
C622        C  0.73735684  0.31357320  0.57129585     1.11000
C623        C  0.75728354  0.31043732  0.42330079     1.10900
C624        C  0.02072030  0.51074927  0.46442548     0.03700
C625        C  0.01520176  0.53303848  0.49536634     0.03700
C626        C  0.98588826  0.52567690  0.51925658     0.03700
C627        C  0.95988218  0.49861405  0.51022742     0.03700
C628        C  0.96475140  0.47700184  0.47871217     0.03700
C629        C  0.99464354  0.48370034  0.45533873     0.03700
O630        O  0.83145278  0.63726089  0.04043107    -0.78700
O631        O  0.67550130  0.64162180  0.95086421    -0.78700
O632        O  0.76418498  0.69992406  0.95389853    -0.78700
O633        O  0.73933119  0.69033067  0.04707351    -0.78700
O634        O  0.73748254  0.65933155  0.91638634    -0.78800
O635        O  0.77018390  0.64685584  0.07757383    -0.78700
O636        O  0.69154984  0.68676881  0.98675425    -0.78700
O637        O  0.81488065  0.68924995  0.01488755    -0.78700
C638        C  0.83574998  0.67178978  0.03739215     1.11000
C639        C  0.66966885  0.67442330  0.96247242     1.10900
C640        C  0.74326997  0.69248355  0.92671813     1.11000
C641        C  0.76169887  0.68071184  0.07213815     1.10900
O642        O  0.74254653  0.57456896  0.05270761    -0.78700
O643        O  0.77025069  0.58571088  0.92881138    -0.78800
O644        O  0.83592685  0.61981585  0.97791894    -0.78700
O645        O  0.67454739  0.61055686  0.00976512    -0.78700
O646        O  0.71014724  0.57271319  0.97737727    -0.78700
O647        O  0.80339540  0.57384188  0.00269092    -0.78700
O648        O  0.70965357  0.62015174  0.07356063    -0.78600
O649        O  0.79970599  0.63691274  0.91787171    -0.78700
Co650      Co  0.78368214  0.60886564  0.03902269     1.51500
Co651      Co  0.72626558  0.61502143  0.94778768     1.51700
Co652      Co  0.79913042  0.66077041  0.96919697     1.51600
Co653      Co  0.70800047  0.65178947  0.02624723     1.51500
O654        O  0.75430493  0.63412754  0.99547980    -1.40600
C655        C  0.71962169  0.58646836  0.07630498     1.10900
C656        C  0.79439208  0.60298600  0.91004222     1.11000
C657        C  0.82968460  0.58541031  0.98262761     1.11000
C658        C  0.68422221  0.57809824  0.00005286     1.10900
C659        C  0.50211731  0.52998008  0.96581858     0.03700
C660        C  0.53244891  0.53463013  0.98932582     0.03700
C661        C  0.53878356  0.50945866  0.01800645     0.03700
C662        C  0.51305907  0.48155843  0.02506213     0.03700
C663        C  0.48268956  0.47688649  0.00158117     0.03700
C664        C  0.47661117  0.50178697  0.97258351     0.03700
O665        O  0.81628581  0.17089497  0.98029777    -0.78700
O666        O  0.68709645  0.16811126  0.01274405    -0.78700
O667        O  0.76880446  0.13302380  0.92023091    -0.78700
O668        O  0.73718364  0.14431633  0.07753874    -0.78700
O669        O  0.73659954  0.17493585  0.95190187    -0.78800
O670        O  0.76557294  0.18327919  0.03903289    -0.78700
O671        O  0.67615883  0.11956529  0.04591678    -0.78700
O672        O  0.83183575  0.11907398  0.95474887    -0.78700
C673        C  0.83715808  0.15341829  0.95832389     1.11000
C674        C  0.66856754  0.15282665  0.03826469     1.10900
C675        C  0.75965305  0.16653255  0.92698205     1.11000
C676        C  0.74399386  0.17709211  0.06585375     1.10900
O677        O  0.79953865  0.12277996  0.07752816    -0.78700
O678        O  0.70859411  0.10607630  0.92342084    -0.78800
O679        O  0.80096386  0.05625624  0.99192914    -0.78700
O680        O  0.71214043  0.05436242  0.01939394    -0.78700
O681        O  0.67488101  0.09122065  0.98655608    -0.78700
O682        O  0.83474552  0.10053486  0.01804223    -0.78700
O683        O  0.77196333  0.07059027  0.06738889    -0.78600
O684        O  0.74085704  0.05981936  0.94371988    -0.78700
Co685      Co  0.79954043  0.14343480  0.02566380     1.51500
Co686      Co  0.70611011  0.13506322  0.97167912     1.51700
Co687      Co  0.78250100  0.09284940  0.95681085     1.51600
Co688      Co  0.72751941  0.09759050  0.04816955     1.51500
O689        O  0.75388234  0.11742420  0.00056224    -1.40600
C690        C  0.79463485  0.08928159  0.08628543     1.10900
C691        C  0.71854847  0.07257657  0.92010631     1.11000
C692        C  0.82692371  0.06641900  0.01305199     1.11000
C693        C  0.68536479  0.05904439  0.99710058     1.10900
O694        O  0.38200942  0.53929769  0.66786263    -0.78700
O695        O  0.38418050  0.45619175  0.82681816    -0.78700
O696        O  0.32535261  0.45148753  0.73599918    -0.78700
O697        O  0.32510227  0.54383114  0.75917058    -0.78700
O698        O  0.36705877  0.41844345  0.76719659    -0.78800
O699        O  0.36596394  0.57715621  0.72757209    -0.78700
O700        O  0.33402253  0.48558948  0.81166350    -0.78700
O701        O  0.33263495  0.50958364  0.68395522    -0.78700
C702        C  0.34792378  0.53321671  0.66309545     1.11000
C703        C  0.35022187  0.46209261  0.83227806     1.10900
C704        C  0.33355187  0.42633028  0.75898941     1.11000
C705        C  0.33271116  0.56920692  0.73626542     1.10900
O706        O  0.43946210  0.56017312  0.75886258    -0.78700
O707        O  0.43995507  0.43657078  0.73529966    -0.78800
O708        O  0.40636554  0.47792085  0.66762025    -0.78700
O709        O  0.40743663  0.51786614  0.82676519    -0.78700
O710        O  0.44863410  0.48737885  0.79297830    -0.78700
O711        O  0.44789475  0.50878393  0.70083360    -0.78700
O712        O  0.39095376  0.57825864  0.78883348    -0.78600
O713        O  0.39141772  0.41755753  0.70586068    -0.78700
Co714      Co  0.40839192  0.54222417  0.71707572     1.51500
Co715      Co  0.40936683  0.45366878  0.77732236     1.51700
Co716      Co  0.36439067  0.46740037  0.70257687     1.51600
Co717      Co  0.36477675  0.52810507  0.79234031     1.51500
O718        O  0.38639293  0.49786833  0.74734920    -1.40600
C719        C  0.42459114  0.58333354  0.78037412     1.10900
C720        C  0.42529909  0.41315398  0.71402932     1.11000
C721        C  0.43978734  0.48632860  0.67524825     1.11000
C722        C  0.44076975  0.51014563  0.81829381     1.10900
O723        O  0.79019760  0.87251856  0.41677232    -0.78700
O724        O  0.69909407  0.86915353  0.57139858    -0.78700
O725        O  0.70068710  0.93044471  0.48188806    -0.78700
O726        O  0.79125912  0.92712507  0.51012457    -0.78700
O727        O  0.66512298  0.88885733  0.50996139    -0.78800
O728        O  0.82511920  0.88620046  0.47923868    -0.78700
O729        O  0.73117395  0.91851421  0.55985431    -0.78700
O730        O  0.76094361  0.92253817  0.43210500    -0.78700
C731        C  0.78508445  0.90689623  0.41206869     1.11000
C732        C  0.70687992  0.90235177  0.57923312     1.10900
C733        C  0.67471359  0.92229441  0.50379123     1.11000
C734        C  0.81703982  0.91950552  0.48783041     1.10900
O735        O  0.80452445  0.81226530  0.50750569    -0.78700
O736        O  0.67979835  0.81537017  0.47775422    -0.78800
O737        O  0.72840795  0.84978877  0.41334377    -0.78700
O738        O  0.76014473  0.84355198  0.57375568    -0.78700
O739        O  0.72976941  0.80413225  0.53757856    -0.78700
O740        O  0.75639267  0.80690511  0.44752183    -0.78700
O741        O  0.82270829  0.85921859  0.53967777    -0.78600
O742        O  0.66667926  0.86610076  0.44821953    -0.78700
Co743      Co  0.78988289  0.84501033  0.46572152     1.51500
Co744      Co  0.69805807  0.84504047  0.52099032     1.51700
Co745      Co  0.71720504  0.89155468  0.44829472     1.51600
Co746      Co  0.77320590  0.88686428  0.54123626     1.51500
O747        O  0.74451826  0.86738741  0.49406263    -1.40600
C748        C  0.82693218  0.82554848  0.53071817     1.10900
C749        C  0.65943893  0.83228299  0.45467933     1.11000
C750        C  0.73446805  0.81601261  0.42181831     1.11000
C751        C  0.75150772  0.81067125  0.56430912     1.10900
O752        O  0.07735011  0.57052475  0.22418232    -0.78700
O753        O  0.07260744  0.44004529  0.26597154    -0.78700
O754        O  0.10618660  0.51678011  0.16730969    -0.78700
O755        O  0.09946340  0.49436052  0.32474247    -0.78700
O756        O  0.06431603  0.48899875  0.20329782    -0.78800
O757        O  0.06230890  0.52425925  0.28518001    -0.78700
O758        O  0.12208042  0.42954841  0.29810856    -0.78700
O759        O  0.12913961  0.58031601  0.19639120    -0.78700
C760        C  0.09571410  0.58924667  0.20116755     1.11000
C761        C  0.08890950  0.42123670  0.29087431     1.10900
C762        C  0.07262950  0.51005326  0.17639372     1.11000
C763        C  0.06725138  0.50261954  0.31234280     1.10900
O764        O  0.12461657  0.55574465  0.32174248    -0.78700
O765        O  0.12786075  0.45418696  0.17263736    -0.78800
O766        O  0.19049870  0.54536877  0.23208468    -0.78700
O767        O  0.18694282  0.46191586  0.26734824    -0.78700
O768        O  0.14739984  0.42518169  0.23719144    -0.78700
O769        O  0.15033767  0.58384498  0.25905032    -0.78700
O770        O  0.17489456  0.52442147  0.31355496    -0.78600
O771        O  0.17889042  0.48296780  0.18472579    -0.78700
Co772      Co  0.10440111  0.55383114  0.26970860     1.51500
Co773      Co  0.10374533  0.45713113  0.22278253     1.51700
Co774      Co  0.15026781  0.52838204  0.19993047     1.51600
Co775      Co  0.14537634  0.48055385  0.29610860     1.51500
O776        O  0.12600885  0.50494441  0.24713592    -1.40600
C777        C  0.15747971  0.54889796  0.33146992     1.10900
C778        C  0.16168773  0.45912157  0.16569357     1.11000
C779        C  0.18341683  0.57289540  0.25271607     1.11000
C780        C  0.18028822  0.43500651  0.24586845     1.10900
C781        C  0.49534445  0.50208056  0.45743526     0.03700
C782        C  0.46565179  0.50739570  0.48145964     0.03700
C783        C  0.46240976  0.48509342  0.51297268     0.03700
C784        C  0.49008680  0.45929184  0.52160542     0.03700
C785        C  0.51935201  0.45371106  0.49710539     0.03700
C786        C  0.52264212  0.47582046  0.46564292     0.03700
C787        C  0.01429410  0.53887139  0.02581715     0.03700
C788        C  0.03662957  0.50784706  0.01979351     0.03700
C789        C  0.03125938  0.48588854  0.98850707     0.03700
C790        C  0.00566142  0.49687449  0.96160562     0.03700
C791        C  0.98361852  0.52823580  0.96732643     0.03700
C792        C  0.98888315  0.54993880  0.99879432     0.03700
C793        C  0.01336912  0.55409384  0.06244710    -0.17100
C794        C  0.01631365  0.55433626  0.09537506     0.07000
C795        C  0.02742034  0.54209595  0.13037747     0.08900
C796        C  0.04433242  0.52684461  0.15453767    -0.17900
C797        C  0.46790156  0.47028910  0.65301151    -0.17100
C798        C  0.48363177  0.45602860  0.62774141     0.07000
C799        C  0.49196276  0.44501128  0.59177784     0.08900
C800        C  0.49249727  0.44544797  0.55876448    -0.17900
C801        C  0.50076361  0.54875828  0.93091793    -0.17100
C802        C  0.49730683  0.55248548  0.89834910     0.07000
C803        C  0.48623697  0.54258776  0.86288061     0.08900
C804        C  0.46920530  0.52763150  0.83889770    -0.17900
C805        C  0.85431169  0.56027112  0.96517993    -0.17100
C806        C  0.88084268  0.54656517  0.95098814     0.07000
C807        C  0.91736789  0.53756697  0.94222350     0.08900
C808        C  0.94985807  0.53315625  0.94685315    -0.17900
C809        C  0.66442717  0.54767096  0.01506659    -0.17100
C810        C  0.64165225  0.52788197  0.02848994     0.07000
C811        C  0.60718316  0.51359067  0.03807852     0.08900
C812        C  0.57454168  0.50912494  0.03531625    -0.17900
C813        C  0.03631593  0.48733802  0.33076776    -0.17100
C814        C  0.01604146  0.47385319  0.35292958     0.07000
C815        C  0.00128968  0.46444640  0.38707444     0.08900
C816        C  0.99607268  0.46725643  0.41943168    -0.17900
C817        C  0.65009998  0.44230539  0.46661649    -0.17100
C818        C  0.62552155  0.45919826  0.45201480     0.07000
C819        C  0.59000706  0.47132879  0.44249289     0.08900
C820        C  0.55740569  0.47543011  0.44642361    -0.17900
C821        C  0.83762197  0.44874404  0.51898091    -0.17100
C822        C  0.86072546  0.46934876  0.53056535     0.07000
C823        C  0.89461530  0.48672529  0.53658101     0.08900
C824        C  0.92602504  0.49486625  0.53047419    -0.17900
C825        C  0.78683318  0.74898591  0.67877985    -0.17100
C826        C  0.78963394  0.75236259  0.64607014     0.07000
C827        C  0.78016101  0.76373258  0.61039574     0.08900
C828        C  0.76667543  0.78124134  0.58569229    -0.17900
C829        C  0.70378988  0.73941086  0.80904021    -0.17100
C830        C  0.70136927  0.73995462  0.84198362     0.07000
C831        C  0.71140761  0.73464110  0.87894632     0.08900
C832        C  0.72618596  0.72084632  0.90524374    -0.17900
C833        C  0.72753239  0.20722063  0.08499439    -0.17100
C834        C  0.71465869  0.22742485  0.10770848     0.07000
C835        C  0.70731100  0.24322072  0.14201723     0.08900
C836        C  0.71241615  0.24935257  0.17403241    -0.17900
C837        C  0.79413890  0.25681647  0.30660011    -0.17100
C838        C  0.79684924  0.25799838  0.33945914     0.07000
C839        C  0.78752037  0.26668631  0.37574527     0.08900
C840        C  0.77367161  0.28249171  0.40115551    -0.17900
C841        C  0.68543708  0.41843190  0.37951796    -0.15000
C842        C  0.69565852  0.44727640  0.35770459    -0.30100
H843        H  0.65939948  0.40494258  0.37292625     0.14000
H844        H  0.72245354  0.45995831  0.36256398     0.14600
C845        C  0.67795389  0.57078523  0.13087051    -0.15000
C846        C  0.70589432  0.56159818  0.10740612    -0.30100
H847        H  0.66404363  0.59707526  0.12603655     0.14000
H848        H  0.71875815  0.53453884  0.11045197     0.14600
C849        C  0.51441850  0.46283356  0.05998424    -0.17100
C850        C  0.51749768  0.45772170  0.09241248     0.07000
C851        C  0.52822147  0.46461382  0.12868423     0.08900
C852        C  0.54532219  0.47730194  0.15387352    -0.17900
C853        C  0.54711803  0.51571777  0.33713292    -0.17100
C854        C  0.52508203  0.52576450  0.35941251     0.07000
C855        C  0.50591812  0.52951174  0.39235854     0.08900
C856        C  0.49755595  0.52192299  0.42323782    -0.17900
C857        C  0.71929484  0.41295385  0.26240591    -0.17100
C858        C  0.73706535  0.38828563  0.27573268     0.07000
C859        C  0.74793826  0.35225044  0.28487880     0.08900
C860        C  0.75053933  0.31938932  0.28157265    -0.17900
C861        C  0.71600060  0.78844097  0.40104434    -0.17100
C862        C  0.70040737  0.77235003  0.37689795     0.07000
C863        C  0.69091525  0.76349071  0.34081614     0.08900
C864        C  0.69616501  0.76240077  0.30838282    -0.17900
C865        C  0.78948168  0.74908279  0.18509135    -0.17100
C866        C  0.79681586  0.74238067  0.15373849     0.07000
C867        C  0.79051132  0.72685277  0.11918639     0.08900
C868        C  0.77784205  0.70795510  0.09529985    -0.17900
C869        C  0.73439085  0.69454163  0.20147264    -0.17100
C870        C  0.73130126  0.66170737  0.19875162     0.07000
C871        C  0.72120980  0.62580611  0.20883892     0.08900
C872        C  0.70546218  0.60031013  0.22280603    -0.17900
C873        C  0.17742736  0.07091830  0.61921903    -0.15000
C874        C  0.18620965  0.04165991  0.64137483    -0.30100
H875        H  0.15205866  0.08587718  0.62528483     0.14000
H876        H  0.21249841  0.02772197  0.63707765     0.14600
C877        C  0.55100470  0.36268278  0.18832905    -0.15000
C878        C  0.57934096  0.38581113  0.17902269    -0.30100
H879        H  0.53854829  0.36568889  0.21538042     0.14000
H880        H  0.59249542  0.38098221  0.15255734     0.14600
C881        C  0.63949227  0.17182531  0.06151419    -0.15000
C882        C  0.62002321  0.20287014  0.05308490    -0.30100
H883        H  0.63235867  0.15764267  0.08694991     0.14000
H884        H  0.62524592  0.21648015  0.02690674     0.14600
C885        C  0.47941851  0.35050777  0.04151130    -0.17100
C886        C  0.46630012  0.37542551  0.02396560     0.07000
C887        C  0.45784978  0.41059622  0.01017218     0.08900
C888        C  0.46241382  0.44282075  0.00409113    -0.17900
C889        C  0.59794793  0.27517608  0.20131184    -0.17100
C890        C  0.62209799  0.28949202  0.21882942     0.07000
C891        C  0.65751931  0.29988685  0.23027088     0.08900
C892        C  0.69037267  0.29732385  0.23353313    -0.17900
C893        C  0.66519239  0.02825193  0.98324997    -0.17100
C894        C  0.64108946  0.01009572  0.96967504     0.07000
C895        C  0.60553460  0.99962950  0.95871261     0.08900
C896        C  0.57246366  0.99862908  0.95946912    -0.17900
C897        C  0.55158413  0.06090942  0.00458370    -0.17100
C898        C  0.55770571  0.09322949  0.00808591     0.07000
C899        C  0.55070904  0.12960947  0.01895623     0.08900
C900        C  0.53746234  0.15495108  0.03552548    -0.17900
C901        C  0.67950445  0.06042902  0.86426657    -0.15000
C902        C  0.70583790  0.04907178  0.88833911    -0.30100
H903        H  0.66637280  0.08697597  0.86905658     0.14000
H904        H  0.71777632  0.02173269  0.88522916     0.14600
C905        C  0.69829716  0.94581237  0.63460793    -0.15000
C906        C  0.68552317  0.92034560  0.61019558    -0.30100
H907        H  0.72627351  0.95610082  0.63145549     0.14000
H908        H  0.65812475  0.90914632  0.61499290     0.14600
C909        C  0.72089785  0.90603558  0.73011428    -0.17100
C910        C  0.73658873  0.88044890  0.71614441     0.07000
C911        C  0.74366439  0.84407643  0.70494478     0.08900
C912        C  0.74326011  0.81091559  0.70543992    -0.17900
C913        C  0.54720808  0.97171093  0.83907621    -0.17100
C914        C  0.52902936  0.95951179  0.86381413     0.07000
C915        C  0.51562389  0.95240709  0.89925041     0.08900
C916        C  0.51035317  0.95706078  0.93148571    -0.17900
C917        C  0.53997296  0.63216984  0.30239733    -0.15000
C918        C  0.56816267  0.60919297  0.31251904    -0.30100
H919        H  0.52938584  0.63069836  0.27435850     0.14000
H920        H  0.57982073  0.61290859  0.33993326     0.14600
C921        C  0.60807582  0.78368176  0.44313227    -0.15000
C922        C  0.62802576  0.81424166  0.43344918    -0.30100
H923        H  0.61445847  0.76978225  0.46894576     0.14000
H924        H  0.61968729  0.82867975  0.40846457     0.14600
C925        C  0.46174058  0.63535321  0.44467936    -0.17100
C926        C  0.44806873  0.60918922  0.45978006     0.07000
C927        C  0.43957598  0.57331905  0.47173867     0.08900
C928        C  0.44451231  0.54104447  0.47770251    -0.17900
C929        C  0.58457330  0.72327190  0.29305207    -0.17100
C930        C  0.60844238  0.71453867  0.27199919     0.07000
C931        C  0.64273638  0.71113927  0.25473308     0.08900
C932        C  0.67437938  0.71766867  0.24780468    -0.17900
C933        C  0.65441276  0.95054236  0.52193756    -0.17100
C934        C  0.63060768  0.96673306  0.53808192     0.07000
C935        C  0.59530246  0.97643595  0.55006996     0.08900
C936        C  0.56239105  0.97921195  0.54855998    -0.17900
C937        C  0.33405967  0.02579697  0.49083314    -0.17100
C938        C  0.35887052  0.00718754  0.47935934     0.07000
C939        C  0.39461066  0.99540003  0.47067716     0.08900
C940        C  0.42750833  0.99203123  0.47225732    -0.17900
C941        C  0.55362912  0.01907302  0.65527940    -0.17100
C942        C  0.53483895  0.03376711  0.63234390     0.07000
C943        C  0.51913758  0.04261082  0.59833326     0.08900
C944        C  0.51079798  0.03611094  0.56715376    -0.17900
C945        C  0.53396416  0.91818402  0.50581629    -0.17100
C946        C  0.53824321  0.88556624  0.50166666     0.07000
C947        C  0.53136526  0.84977114  0.48876916     0.08900
C948        C  0.51932306  0.82539768  0.46992938    -0.17900
C949        C  0.43670440  0.86342962  0.33432673    -0.15000
C950        C  0.44703162  0.88399774  0.30461874    -0.30100
H951        H  0.41196593  0.87194818  0.34889693     0.14000
H952        H  0.47273536  0.87706128  0.29093449     0.14600
C953        C  0.44719040  0.13374557  0.17192216    -0.15000
C954        C  0.45676999  0.11302208  0.20203762    -0.30100
H955        H  0.42103063  0.12722840  0.15866204     0.14000
H956        H  0.48380643  0.11744276  0.21434587     0.14600
C957        C  0.33237264  0.06083643  0.37124632    -0.15000
C958        C  0.30273205  0.04991094  0.39184717    -0.30100
H959        H  0.34540332  0.08684957  0.37878078     0.14000
H960        H  0.29049437  0.02306542  0.38616287     0.14600
C961        C  0.49905424  0.04147711  0.06156878    -0.17100
C962        C  0.49470104  0.04406317  0.09421641     0.07000
C963        C  0.48271627  0.03528718  0.12987992     0.08900
C964        C  0.46586364  0.02306150  0.15558430    -0.17900
C965        C  0.46751697  0.97057670  0.35143175    -0.17100
C966        C  0.48054980  0.95435959  0.37726631     0.07000
C967        C  0.48606278  0.94205696  0.41350607     0.08900
C968        C  0.48631621  0.94319063  0.44651436    -0.17900
C969        C  0.61593574  0.30507034  0.57792571    -0.15000
C970        C  0.63488078  0.29808254  0.54657755    -0.30100
H971        H  0.62350758  0.32962536  0.59337058     0.14000
H972        H  0.62918593  0.27254555  0.53196727     0.14600
C973        C  0.57662320  0.10818309  0.68301057    -0.15000
C974        C  0.54683833  0.12917212  0.69192395    -0.30100
H975        H  0.59063794  0.11457706  0.65734261     0.14000
H976        H  0.53366161  0.12473313  0.71840898     0.14600
C977        C  0.38656545  0.19175302  0.55514747    -0.15000
C978        C  0.36140560  0.16668961  0.56729823    -0.30100
H979        H  0.38451870  0.20156630  0.52685326     0.14000
H980        H  0.36512577  0.15580237  0.59505272     0.14600
C981        C  0.43622409  0.35872761  0.67199595    -0.15000
C982        C  0.44751354  0.38074679  0.70003100    -0.30100
H983        H  0.41034358  0.36540100  0.65835965     0.14000
H984        H  0.47446715  0.37582527  0.71221563     0.14600
C985        C  0.53336173  0.33268161  0.54261376    -0.17100
C986        C  0.54724523  0.35621628  0.52418420     0.07000
C987        C  0.55240440  0.39134126  0.50939674     0.08900
C988        C  0.54312879  0.42228192  0.50237177    -0.17900
C989        C  0.45897969  0.05551195  0.51029967    -0.17100
C990        C  0.45779144  0.08857039  0.51263652     0.07000
C991        C  0.46823458  0.12408806  0.52383646     0.08900
C992        C  0.48153893  0.14865370  0.54156688    -0.17900
C993        C  0.27019220  0.20342629  0.59137133    -0.17100
C994        C  0.28328768  0.22179585  0.61546268     0.07000
C995        C  0.29092018  0.23495733  0.65079429     0.08900
C996        C  0.28662109  0.24033366  0.68300695    -0.17900
C997        C  0.23744175  0.18408810  0.71002877    -0.17100
C998        C  0.23212263  0.15162507  0.70631959     0.07000
C999        C  0.21918227  0.11613712  0.71445337     0.08900
C1000       C  0.20142622  0.09149854  0.72753584    -0.17900
C1001       C  0.30498908  0.40500525  0.77542033    -0.17100
C1002       C  0.28483223  0.38199127  0.78788780     0.07000
C1003       C  0.26738868  0.34828862  0.79475486     0.08900
C1004       C  0.25866594  0.31683210  0.78955423    -0.17900
C1005       C  0.40051169  0.27148820  0.69611050    -0.17100
C1006       C  0.37726092  0.28641713  0.71409010     0.07000
C1007       C  0.34331751  0.29646164  0.72908418     0.08900
C1008       C  0.31137238  0.29284618  0.73637304    -0.17900
C1009       C  0.30405256  0.45013157  0.88415643    -0.15000
C1010       C  0.33146321  0.43896410  0.86137157    -0.30100
H1011       H  0.29307989  0.47788962  0.88100927     0.14000
H1012       H  0.34364661  0.41198741  0.86647672     0.14600
C1013       C  0.20735430  0.44607323  0.11381098    -0.15000
C1014       C  0.17911788  0.43566875  0.13599274    -0.30100
H1015       H  0.21957718  0.47307726  0.11800886     0.14000
H1016       H  0.16562672  0.40959396  0.13009388     0.14600
C1017       C  0.39361212  0.29944928  0.04730966    -0.15000
C1018       C  0.36740866  0.32424257  0.05815989    -0.30100
H1019       H  0.39396587  0.29120415  0.01851343     0.14000
H1020       H  0.36893093  0.33370972  0.08655205     0.14600
C1021       C  0.16173290  0.46695234  0.02774824    -0.17100
C1022       C  0.13693159  0.48378619  0.04156557     0.07000
C1023       C  0.10104845  0.49596200  0.04852365     0.08900
C1024       C  0.06925654  0.50196128  0.04168395    -0.17900
C1025       C  0.34973048  0.46596669  0.97164025    -0.17100
C1026       C  0.37370825  0.48415105  0.95810088     0.07000
C1027       C  0.40898070  0.49709927  0.94971845     0.08900
C1028       C  0.44147005  0.50131448  0.95406070    -0.17900
C1029       C  0.20617031  0.26342113  0.81419919    -0.17100
C1030       C  0.20259388  0.27192315  0.84584832     0.07000
C1031       C  0.21198173  0.28815660  0.87952478     0.08900
C1032       C  0.22615984  0.30685808  0.90281710    -0.17900
C1033       C  0.24197922  0.32044891  0.21236257    -0.17100
C1034       C  0.23795384  0.35310423  0.20891154     0.07000
C1035       C  0.22697223  0.38898082  0.21774914     0.08900
C1036       C  0.20968594  0.41374105  0.23107740    -0.17900
C1037       C  0.21478235  0.24341823  0.31908502    -0.17100
C1038       C  0.21095132  0.23428783  0.35059759     0.07000
C1039       C  0.21850109  0.21652221  0.38410503     0.08900
C1040       C  0.23017958  0.19628801  0.40766013    -0.17900
C1041       C  0.31648681  0.21082067  0.23650071    -0.17100
C1042       C  0.34698185  0.20315546  0.22648488     0.07000
C1043       C  0.38095125  0.20714013  0.20892343     0.08900
C1044       C  0.40547030  0.21830181  0.18993243    -0.17900
C1045       C  0.26881966  0.19111987  0.29555688    -0.17100
C1046       C  0.27816188  0.16003936  0.30206704     0.07000
C1047       C  0.29512200  0.12590936  0.29610519     0.08900
C1048       C  0.31399578  0.10176477  0.28376313    -0.17900
C1049       C  0.27847928  0.30123419  0.09119138    -0.17100
C1050       C  0.28954486  0.28336408  0.11677906     0.07000
C1051       C  0.29560581  0.27048750  0.15263437     0.08900
C1052       C  0.29118600  0.26488712  0.18484103    -0.17900
C1053       C  0.88304322  0.31351538  0.42021488    -0.15000
C1054       C  0.86159163  0.30319617  0.44889231    -0.30100
H1055       H  0.87590192  0.33875371  0.40560863     0.14000
H1056       H  0.86694815  0.27683093  0.46218101     0.14600
C1057       C  0.13506862  0.17417090  0.43455220    -0.15000
C1058       C  0.11380448  0.20427344  0.44288193    -0.30100
H1059       H  0.12885975  0.16003536  0.40884528     0.14000
H1060       H  0.11804604  0.21767405  0.46934962     0.14600
C1061       C  0.07109940  0.39085202  0.31381523    -0.15000
C1062       C  0.04779518  0.36370129  0.30197308    -0.30100
H1063       H  0.08117432  0.38869431  0.34201235     0.14000
H1064       H  0.03887068  0.36411504  0.27333183     0.14600
C1065       C  0.94489744  0.44292168  0.47447599    -0.17100
C1066       C  0.94109305  0.41051533  0.46933718     0.07000
C1067       C  0.95199067  0.37532575  0.45804045     0.08900
C1068       C  0.96814727  0.35103699  0.44257923    -0.17900
C1069       C  0.90592708  0.21629162  0.29302853    -0.17100
C1070       C  0.88170573  0.20358337  0.27441768     0.07000
C1071       C  0.84699542  0.19827505  0.25832632     0.08900
C1072       C  0.81584630  0.20612741  0.25025090    -0.17900
C1073       C  0.09316723  0.26969701  0.29186906    -0.17100
C1074       C  0.11795554  0.28365813  0.27517824     0.07000
C1075       C  0.15367520  0.29419694  0.26530132     0.08900
C1076       C  0.18655948  0.29262814  0.26230979    -0.17900
C1077       C  0.80617124  0.42283461  0.60917842    -0.15000
C1078       C  0.80590430  0.45819137  0.62106292    -0.30100
H1079       H  0.82442510  0.40395862  0.62401602     0.14000
H1080       H  0.78712047  0.47767806  0.60776247     0.14600
C1081       C  0.81799081  0.58521347  0.87977847    -0.15000
C1082       C  0.81150695  0.55245380  0.86213047    -0.30100
H1083       H  0.84168367  0.60117649  0.87066115     0.14000
H1084       H  0.78684337  0.53724929  0.86982602     0.14600
C1085       C  0.95033388  0.52222305  0.64811620    -0.17100
C1086       C  0.96900110  0.53400582  0.62366328     0.07000
C1087       C  0.98200105  0.54251014  0.58853253     0.08900
C1088       C  0.98583427  0.54051401  0.55589409    -0.17900
C1089       C  0.00317572  0.47807824  0.92680119    -0.17100
C1090       C  0.99670426  0.47147403  0.89511676     0.07000
C1091       C  0.98113208  0.47478156  0.85996112     0.08900
C1092       C  0.96067318  0.48346403  0.83540321    -0.17900
C1093       C  0.78245241  0.58582855  0.76919709    -0.17100
C1094       C  0.76362032  0.60959423  0.78204451     0.07000
C1095       C  0.75210546  0.64545562  0.78985893     0.08900
C1096       C  0.74952055  0.67813605  0.78558658    -0.17900
C1097       C  0.71051631  0.09268700  0.77633913    -0.17100
C1098       C  0.72629452  0.11777729  0.79092983     0.07000
C1099       C  0.73635704  0.15368270  0.80077766     0.08900
C1100       C  0.73956867  0.18647164  0.79771146    -0.17900
C1101       C  0.79356164  0.24023436  0.81795652    -0.17100
C1102       C  0.79882771  0.23162486  0.84937162     0.07000
C1103       C  0.79000635  0.21447359  0.88267679     0.08900
C1104       C  0.77606102  0.19484480  0.90527301    -0.17900
C1105       C  0.58631295  0.22234330  0.71610769    -0.17100
C1106       C  0.61135261  0.21248896  0.73543115     0.07000
C1107       C  0.64752540  0.20768455  0.74817120     0.08900
C1108       C  0.68002752  0.21272282  0.75173996    -0.17900
C1109       C  0.70477296  0.25846634  0.69112240    -0.17100
C1110       C  0.70130984  0.26143574  0.65838505     0.07000
C1111       C  0.70999180  0.27103841  0.62202510     0.08900
C1112       C  0.72279343  0.28635793  0.59566997    -0.17900
C1113       C  0.75665486  0.31459692  0.71114003    -0.17100
C1114       C  0.75992012  0.34681397  0.70453431     0.07000
C1115       C  0.77090392  0.38323432  0.71027251     0.08900
C1116       C  0.78882965  0.40787715  0.72283928    -0.17900
C1117       C  0.58012848  0.88313745  0.81184196    -0.15000
C1118       C  0.54889808  0.86414879  0.80365961    -0.30100
H1119       H  0.59447315  0.87591245  0.83718730     0.14000
H1120       H  0.53507353  0.86958922  0.77763311     0.14600
C1121       C  0.61445537  0.68926462  0.92064882    -0.15000
C1122       C  0.63743483  0.69830582  0.94899746    -0.30100
H1123       H  0.62005972  0.66334746  0.90655369     0.14000
H1124       H  0.63332418  0.72486356  0.96238188     0.14600
C1125       C  0.43344113  0.63944738  0.82109406    -0.15000
C1126       C  0.44618623  0.61621101  0.79458886    -0.30100
H1127       H  0.40681238  0.63341473  0.83326572     0.14000
H1128       H  0.47371510  0.62059706  0.78381362     0.14600
C1129       C  0.52804855  0.65982057  0.95227773    -0.17100
C1130       C  0.54389572  0.63626020  0.96940858     0.07000
C1131       C  0.55523258  0.60159486  0.98230177     0.08900
C1132       C  0.55214284  0.56905720  0.98750774    -0.17900
C1133       C  0.68062478  0.78721725  0.74944028    -0.17100
C1134       C  0.64813071  0.79213266  0.75339716     0.07000
C1135       C  0.61210810  0.78536783  0.76548585     0.08900
C1136       C  0.58705914  0.77362605  0.78352210    -0.17900
C1137       C  0.47959072  0.84788783  0.95372646    -0.17100
C1138       C  0.46432004  0.87148060  0.97114855     0.07000
C1139       C  0.45310339  0.90645779  0.98310332     0.08900
C1140       C  0.45671010  0.93907759  0.98730732    -0.17900
C1141       C  0.23088391  0.80621336  0.80239929    -0.17100
C1142       C  0.22475471  0.83831488  0.80758352     0.07000
C1143       C  0.21073436  0.87363304  0.80043681     0.08900
C1144       C  0.19300498  0.89850531  0.78752204    -0.17900
C1145       C  0.25296050  0.67781981  0.71610011    -0.17100
C1146       C  0.26322695  0.64759142  0.70750985     0.07000
C1147       C  0.28256137  0.61428320  0.71050703     0.08900
C1148       C  0.30374192  0.59098152  0.72084898    -0.17900
C1149       C  0.39679102  0.72839445  0.80099346    -0.17100
C1150       C  0.37278638  0.71176780  0.78555475     0.07000
C1151       C  0.33822892  0.69850050  0.77486894     0.08900
C1152       C  0.30548095  0.69959997  0.77068472    -0.17900
C1153       C  0.19965710  0.55842868  0.38720701    -0.15000
C1154       C  0.17360720  0.57072096  0.36309532    -0.30100
H1155       H  0.21115603  0.53101095  0.38325949     0.14000
H1156       H  0.16097008  0.59740066  0.36842115     0.14600
C1157       C  0.32775294  0.55628834  0.63467723    -0.15000
C1158       C  0.29704520  0.54666333  0.61543242    -0.30100
H1159       H  0.34073580  0.58246052  0.62768428     0.14000
H1160       H  0.28497804  0.51957300  0.62011237     0.14600
C1161       C  0.35726715  0.68607260  0.46009509    -0.15000
C1162       C  0.37733235  0.67813913  0.42954732    -0.30100
H1163       H  0.36221711  0.71215302  0.47414656     0.14000
H1164       H  0.37023103  0.65313859  0.41446732     0.14600
C1165       C  0.34196534  0.53660047  0.52919189    -0.17100
C1166       C  0.36530271  0.51557880  0.53977514     0.07000
C1167       C  0.39898257  0.49708503  0.54349927     0.08900
C1168       C  0.42970407  0.48843840  0.53504201    -0.17900
C1169       C  0.05663323  0.51081581  0.44759983    -0.17100
C1170       C  0.08961832  0.51250721  0.44560776     0.07000
C1171       C  0.12563242  0.52105913  0.45672086     0.08900
C1172       C  0.15056566  0.53616901  0.47235852    -0.17900
C1173       C  0.21474057  0.69008248  0.60473140    -0.17100
C1174       C  0.20181715  0.70879833  0.62859014     0.07000
C1175       C  0.19456151  0.72465218  0.66281402     0.08900
C1176       C  0.19955413  0.73196559  0.69455299    -0.17900
C1177       C  0.30382863  0.80298217  0.27374865    -0.17100
C1178       C  0.33608109  0.80832657  0.27852941     0.07000
C1179       C  0.37220029  0.79887677  0.28833678     0.08900
C1180       C  0.39708369  0.78239892  0.30273783    -0.17900
C1181       C  0.25300616  0.82272839  0.21710940    -0.17100
C1182       C  0.26244756  0.85416895  0.21251643     0.07000
C1183       C  0.28108373  0.88725391  0.21996883     0.08900
C1184       C  0.30203982  0.90988814  0.23205522    -0.17900
C1185       C  0.23842104  0.68790158  0.29449814    -0.17100
C1186       C  0.23698702  0.65476932  0.29524556     0.07000
C1187       C  0.22838745  0.61878756  0.28389969     0.08900
C1188       C  0.21244581  0.59383892  0.26908969    -0.17900
C1189       C  0.28249562  0.74657989  0.32517138    -0.17100
C1190       C  0.28725459  0.73896330  0.35695089     0.07000
C1191       C  0.28070501  0.72297761  0.39138675     0.08900
C1192       C  0.26894346  0.70322894  0.41510667    -0.17900
C1193       C  0.87758238  0.72372974  0.06157455    -0.15000
C1194       C  0.86563037  0.68842797  0.06119933    -0.30100
H1195       H  0.86468346  0.74363744  0.04318935     0.14000
H1196       H  0.88010093  0.66900359  0.07894056     0.14600
C1197       C  0.04903260  0.64045715  0.18788060    -0.15000
C1198       C  0.07992541  0.62108966  0.17917375    -0.30100
H1199       H  0.03395854  0.63272496  0.21247570     0.14000
H1200       H  0.09581984  0.63013251  0.15554132     0.14600
C1201       C  0.97254075  0.58609598  0.00106168    -0.17100
C1202       C  0.96826076  0.61861118  0.00542530     0.07000
C1203       C  0.97441218  0.65439854  0.01830149     0.08900
C1204       C  0.98543761  0.67828850  0.03816867    -0.17900
C1205       C  0.90350090  0.77649885  0.21039642    -0.17100
C1206       C  0.87913959  0.78737430  0.22980993     0.07000
C1207       C  0.84399145  0.79542860  0.24343636     0.08900
C1208       C  0.81119427  0.79321056  0.24692866    -0.17900
C1209       C  0.08433185  0.73557135  0.22315481    -0.17100
C1210       C  0.10987246  0.72141579  0.23886679     0.07000
C1211       C  0.14670780  0.71182033  0.24585358     0.08900
C1212       C  0.17967631  0.71460342  0.24686310    -0.17900
C1213       C  0.13998094  0.81731323  0.06057409    -0.15000
C1214       C  0.12056780  0.82481163  0.09162296    -0.30100
H1215       H  0.13262421  0.79299248  0.04482938     0.14000
H1216       H  0.12903676  0.84829233  0.10808104     0.14600
C1217       C  0.36750555  0.83734390  0.93385243    -0.15000
C1218       C  0.38946190  0.80829361  0.94293168    -0.30100
H1219       H  0.37246440  0.85145120  0.90781124     0.14000
H1220       H  0.38599698  0.79546993  0.96984975     0.14600
C1221       C  0.31787550  0.95352367  0.14428069    -0.15000
C1222       C  0.32582407  0.92319887  0.12351047    -0.30100
H1223       H  0.29159366  0.96731484  0.13992802     0.14000
H1224       H  0.35136835  0.90852863  0.12934101     0.14600
C1225       C  0.20826619  0.94579661  0.88594121    -0.15000
C1226       C  0.17372625  0.94187849  0.87214072    -0.30100
H1227       H  0.22633689  0.96622617  0.87338008     0.14000
H1228       H  0.15586154  0.92215106  0.88602928     0.14600
C1229       C  0.27120662  0.80046700  0.91241449    -0.17100
C1230       C  0.28191242  0.77891656  0.88990312     0.07000
C1231       C  0.28764653  0.75982052  0.85711785     0.08900
C1232       C  0.28175214  0.75054389  0.82609399    -0.17900
C1233       C  0.24095947  0.78563935  0.09378824    -0.17100
C1234       C  0.22730713  0.76893872  0.11891682     0.07000
C1235       C  0.21459029  0.76074349  0.15453096     0.08900
C1236       C  0.21207872  0.76010284  0.18752858    -0.17900
C1237       C  0.43780521  0.99854441  0.03678933    -0.17100
C1238       C  0.40574718  0.99606056  0.04388121     0.07000
C1239       C  0.36954064  0.98394398  0.04042112     0.08900
C1240       C  0.34482563  0.96476360  0.03029252    -0.17900
C1241       C  0.05917611  0.86287455  0.68039050    -0.15000
C1242       C  0.04946669  0.88515093  0.70895619    -0.30100
H1243       H  0.08566714  0.86818193  0.66735101     0.14000
H1244       H  0.02208429  0.88198123  0.72078653     0.14600
C1245       C  0.94564538  0.63532145  0.68789183    -0.15000
C1246       C  0.91549034  0.61510675  0.67864460    -0.30100
H1247       H  0.95924850  0.62967281  0.71406311     0.14000
H1248       H  0.90105247  0.62222034  0.65325551     0.14600
C1249       C  0.10677651  0.69903923  0.55547796    -0.15000
C1250       C  0.12922006  0.67039681  0.56562022    -0.30100
H1251       H  0.11035162  0.71115729  0.52828688     0.14000
H1252       H  0.12365005  0.65728774  0.59202119     0.14600
C1253       C  0.87871049  0.81201292  0.57569813    -0.15000
C1254       C  0.85804767  0.80205996  0.54607337    -0.30100
H1255       H  0.87171122  0.83764982  0.58946222     0.14000
H1256       H  0.86329527  0.77553101  0.53329139     0.14600
C1257       C  0.17880624  0.78725823  0.74674007    -0.17100
C1258       C  0.14802966  0.79488693  0.73761680     0.07000
C1259       C  0.11444498  0.78862857  0.72008543     0.08900
C1260       C  0.09162506  0.77546696  0.70029832    -0.17900
C1261       C  0.03429021  0.56762295  0.49935940    -0.17100
C1262       C  0.03746337  0.59980884  0.50641456     0.07000
C1263       C  0.02782980  0.63417503  0.52126402     0.08900
C1264       C  0.01443834  0.65775629  0.54019293    -0.17900
C1265       C  0.81067307  0.70201587  0.73938443    -0.17100
C1266       C  0.84372319  0.70007046  0.73743900     0.07000
C1267       C  0.87981501  0.71042584  0.72805429     0.08900
C1268       C  0.90492303  0.72459116  0.71180513    -0.17900
C1269       C  0.92490557  0.99780149  0.46268632    -0.17100
C1270       C  0.89421363  0.98831912  0.45497620     0.07000
C1271       C  0.86108555  0.96941956  0.46030830     0.08900
C1272       C  0.83846640  0.94850082  0.47221481    -0.17900
C1273       C  0.05342575  0.01232830  0.54969700    -0.17100
C1274       C  0.08635615  0.01481988  0.55201165     0.07000
C1275       C  0.12244004  0.02439182  0.54217560     0.08900
C1276       C  0.14805584  0.03980904  0.52808031    -0.17900
C1277       C  0.03957339  0.97018651  0.65958307    -0.17100
C1278       C  0.02083087  0.95752071  0.63554335     0.07000
C1279       C  0.00550389  0.95149551  0.60078774     0.08900
C1280       C  0.99827012  0.95901587  0.56950128    -0.17900
C1281       C  0.02824718  0.07389796  0.50600781    -0.17100
C1282       C  0.03516173  0.10594293  0.50142732     0.07000
C1283       C  0.03162697  0.14167396  0.48710352     0.08900
C1284       C  0.02186725  0.16600442  0.46684307    -0.17900
C1285       C  0.94677567  0.94044597  0.51271109    -0.17100
C1286       C  0.94262420  0.90788760  0.51721424     0.07000
C1287       C  0.95089483  0.87229089  0.53001976     0.08900
C1288       C  0.96449783  0.84737115  0.54721428    -0.17900
C1289       C  0.94448246  0.11431105  0.29713437    -0.15000
C1290       C  0.93765963  0.13440929  0.32791747    -0.30100
H1291       H  0.97045325  0.11846479  0.28286926     0.14000
H1292       H  0.91253663  0.12817511  0.34296486     0.14600
C1293       C  0.80680133  0.04512947  0.13942096    -0.15000
C1294       C  0.81715342  0.07349055  0.11735199    -0.30100
H1295       H  0.78017884  0.03224116  0.13496127     0.14000
H1296       H  0.84277488  0.08762814  0.12363820     0.14600
C1297       C  0.80967766  0.92677148  0.38458981    -0.15000
C1298       C  0.80230633  0.95865985  0.36588139    -0.30100
H1299       H  0.83517332  0.91238834  0.37770211     0.14000
H1300       H  0.77592277  0.97233328  0.37041475     0.14600
C1301       C  0.93899977  0.89084807  0.21044879    -0.15000
C1302       C  0.93065211  0.87278216  0.17889129    -0.30100
H1303       H  0.96508768  0.88515026  0.22406311     0.14000
H1304       H  0.90564605  0.88049397  0.16421014     0.14600
C1305       C  0.75359718  0.81566663  0.29645169    -0.17100
C1306       C  0.76111887  0.84666617  0.30501820     0.07000
C1307       C  0.77611456  0.88180873  0.29999635     0.08900
C1308       C  0.79422483  0.90642906  0.28749829    -0.17900
C1309       C  0.76135665  0.19042628  0.19510563    -0.17100
C1310       C  0.76668233  0.15806024  0.19086128     0.07000
C1311       C  0.78045269  0.12354610  0.20149711     0.08900
C1312       C  0.79804054  0.10052480  0.21763948    -0.17900
C1313       C  0.97865864  0.05385378  0.44729100    -0.17100
C1314       C  0.97513223  0.05855652  0.41481736     0.07000
C1315       C  0.96480714  0.04946408  0.37884409     0.08900
C1316       C  0.94910922  0.03520461  0.35351772    -0.17900
C1317       C  0.11512294  0.30561187  0.94727404    -0.15000
C1318       C  0.13932136  0.33216748  0.93658958    -0.30100
H1319       H  0.11784803  0.29445531  0.97501340     0.14000
H1320       H  0.13489311  0.34458558  0.90959129     0.14600
C1321       C  0.06556997  0.13859707  0.82922604    -0.15000
C1322       C  0.05576295  0.11570364  0.80104931    -0.30100
H1323       H  0.09198445  0.13314662  0.84247603     0.14000
H1324       H  0.02858597  0.11933289  0.78881123     0.14600
C1325       C  0.93529689  0.36513913  0.82573089    -0.15000
C1326       C  0.94163359  0.38496529  0.79442859    -0.30100
H1327       H  0.91022518  0.37193763  0.84074661     0.14000
H1328       H  0.96734108  0.38009223  0.77978523     0.14600
C1329       C  0.88762338  0.20076715  0.94522968    -0.15000
C1330       C  0.86694750  0.17117076  0.93527946    -0.30100
H1331       H  0.88225460  0.21365220  0.97162435     0.14000
H1332       H  0.87414343  0.15702617  0.90996305     0.14600
C1333       C  0.09396258  0.22803752  0.80337257    -0.17100
C1334       C  0.11697531  0.21360881  0.78465716     0.07000
C1335       C  0.15103350  0.20434678  0.76932909     0.08900
C1336       C  0.18287775  0.20861718  0.76185565    -0.17900
C1337       C  0.04501244  0.44849139  0.98788078    -0.17100
C1338       C  0.04567126  0.41538628  0.98587573     0.07000
C1339       C  0.03564099  0.37887085  0.97779395     0.08900
C1340       C  0.02259735  0.35219147  0.96315819    -0.03500
C1341       C  0.90677985  0.27436124  0.80109978    -0.17100
C1342       C  0.88228883  0.28646780  0.78220148     0.07000
C1343       C  0.84738303  0.29440818  0.76728304     0.08900
C1344       C  0.81500509  0.29092205  0.76108120    -0.17900
C1345       C  0.94156126  0.00752868  0.05040170    -0.17100
C1346       C  0.90904790  0.01106132  0.05478771     0.07000
C1347       C  0.87331974  0.02262847  0.04612524     0.08900
C1348       C  0.84889367  0.03954210  0.03154293    -0.17900
C1349       C  0.04017322  0.03142671  0.85248323    -0.17100
C1350       C  0.02633460  0.04548315  0.87891588     0.07000
C1351       C  0.01902092  0.05383567  0.91577234     0.08900
C1352       C  0.01713807  0.04927380  0.94840200    -0.17900
C1353       C  0.03035164  0.84872652  0.04927525    -0.17100
C1354       C  0.04517455  0.87071431  0.02980750     0.07000
C1355       C  0.05471228  0.90548306  0.01658932     0.08900
C1356       C  0.05060645  0.93811899  0.01358166    -0.17900
C1357       C  0.07700206  0.00236375  0.97451738    -0.17100
C1358       C  0.11000288  0.00007373  0.97397763     0.07000
C1359       C  0.14536048  0.98849042  0.98450345     0.08900
C1360       C  0.16908450  0.96928877  0.99742003    -0.17900
C1361       C  0.94880045  0.96788323  0.15623203    -0.17100
C1362       C  0.96786638  0.95410583  0.13303595     0.07000
C1363       C  0.98571186  0.94655125  0.09975827     0.08900
C1364       C  0.99557033  0.95337307  0.06902279    -0.17900
C1365       C  0.96364780  0.06742328  0.00363226    -0.17100
C1366       C  0.95751346  0.09947240  0.99808705     0.07000
C1367       C  0.96447143  0.13476655  0.98417539     0.08900
C1368       C  0.97740354  0.15898091  0.96581230    -0.17900
loop_ 
_geom_bond_atom_site_label_1 
_geom_bond_atom_site_label_2 
_geom_bond_distance 
_geom_bond_site_symmetry_2 
_ccdc_geom_bond_type 
C1            C2   1.399       .  A
C1            C6   1.400   1_645  A
C1         C1345   1.437       .  S
C2            C3   1.400   1_654  A
C2         C1365   1.437       .  S
C3            C4   1.397       .  A
C3         C1352   1.438       .  S
C4            C5   1.398   1_546  A
C4         C1357   1.437       .  S
C5            C6   1.401       .  A
C5         C1356   1.433       .  S
C6         C1364   1.440   1_455  S
O7           C15   1.268       .  A
O7          Co27   2.035       .  S
O8           C16   1.265       .  A
O8          Co28   2.026       .  S
O9           C17   1.269       .  A
O9          Co29   1.960       .  S
O10          C18   1.267       .  A
O10         Co30   1.955       .  S
O11          C17   1.279       .  A
O11         Co28   2.025       .  S
O12          C18   1.277       .  A
O12         Co27   2.019       .  S
O13          C16   1.277       .  A
O13         Co30   2.049   1_655  S
O14          C15   1.275       .  A
O14         Co29   2.038   1_455  S
C15        C1321   1.528       .  S
C16        C1325   1.528       .  S
C17        C1341   1.427       .  S
C18        C1333   1.422       .  S
O19          C32   1.263       .  A
O19         Co27   1.987       .  S
O20          C33   1.264       .  A
O20         Co28   1.986       .  S
O21          C34   1.275       .  A
O21         Co29   2.015       .  S
O22          C35   1.274       .  A
O22         Co30   2.010       .  S
O23          C35   1.270   1_655  A
O23         Co28   1.969       .  S
O24          C34   1.266   1_455  A
O24         Co27   1.958       .  S
O25          C32   1.277       .  A
O25         Co30   2.077       .  S
O26          C33   1.273       .  A
O26         Co29   2.060       .  S
Co27         O31   2.100       .  S
Co28         O31   2.100   1_655  S
Co29         O31   2.132   1_655  S
Co30         O31   2.131       .  S
C32        C1317   1.523       .  S
C33        C1329   1.514       .  S
C34        C1368   1.422       .  S
C35        C1340   1.425       .  S
O36          C44   1.274       .  A
O36         Co56   2.051       .  S
O37          C45   1.277       .  A
O37         Co57   2.060       .  S
O38          C46   1.263       .  A
O38         Co58   1.960       .  S
O39          C47   1.262       .  A
O39         Co59   1.962       .  S
O40          C46   1.270       .  A
O40         Co57   2.008       .  S
O41          C47   1.270       .  A
O41         Co56   2.009       .  S
O42          C45   1.271       .  A
O42         Co59   2.005   1_565  S
O43          C44   1.266       .  A
O43         Co58   1.986   1_545  S
C44        C1293   1.505       .  S
C45        C1298   1.523       .  S
C46        C1308   1.421       .  S
C47        C1312   1.424       .  S
O48          C61   1.267       .  A
O48         Co56   1.992       .  S
O49          C62   1.267       .  A
O49         Co57   1.988       .  S
O50          C63   1.271       .  A
O50         Co58   2.016       .  S
O51          C64   1.269       .  A
O51         Co59   2.004       .  S
O52          C64   1.262   1_565  A
O52         Co57   1.964       .  S
O53          C63   1.264   1_545  A
O53         Co56   1.962       .  S
O54          C61   1.278       .  A
O54         Co59   2.066       .  S
O55          C62   1.273       .  A
O55         Co58   2.043       .  S
Co56         O60   2.118       .  S
Co57         O60   2.115   1_565  S
Co58         O60   2.118   1_565  S
Co59         O60   2.119       .  S
C61        C1289   1.518       .  S
C62        C1301   1.502       .  S
C63        C1361   1.426       .  S
C64        C1316   1.423       .  S
C65          C66   1.399       .  A
C65          C70   1.400   1_445  A
C65        C1273   1.439       .  S
C66          C67   1.401   1_455  A
C66        C1281   1.439       .  S
C67          C68   1.402       .  A
C67        C1313   1.438       .  S
C68          C69   1.402   1_545  A
C68        C1269   1.438   1_545  S
C69          C70   1.399       .  A
C69        C1285   1.441       .  S
C70        C1280   1.436       .  S
O71          C79   1.269       .  A
O71         Co91   2.038       .  S
O72          C80   1.271       .  A
O72         Co92   2.050       .  S
O73          C81   1.271       .  A
O73         Co93   1.968       .  S
O74          C82   1.263       .  A
O74         Co94   1.946       .  S
O75          C81   1.278       .  A
O75         Co92   2.019       .  S
O76          C82   1.275       .  A
O76         Co91   2.016       .  S
O77          C80   1.265       .  A
O77         Co94   1.994   1_655  S
O78          C79   1.272       .  A
O78         Co93   2.021   1_455  S
C79        C1241   1.518       .  S
C80        C1245   1.512       .  S
C81        C1268   1.427       .  S
C82        C1260   1.417       .  S
O83          C96   1.269       .  A
O83         Co91   2.006       .  S
O84          C97   1.269       .  A
O84         Co92   2.015       .  S
O85          C98   1.278       .  A
O85         Co93   2.023       .  S
O86          C99   1.275   1_455  A
O86         Co94   2.015       .  S
O87          C99   1.268       .  A
O87         Co92   1.964       .  S
O88          C98   1.268   1_455  A
O88         Co91   1.959       .  S
O89          C96   1.272       .  A
O89         Co94   2.055       .  S
O90          C97   1.268       .  A
O90         Co93   2.031       .  S
Co91         O95   2.106   1_455  S
Co92         O95   2.119       .  S
Co93         O95   2.118       .  S
Co94         O95   2.112   1_455  S
C96        C1249   1.524       .  S
C97        C1253   1.510       .  S
C98        C1288   1.425       .  S
C99        C1264   1.425   1_655  S
O100        C108   1.270       .  A
O100       Co120   2.050       .  S
O101        C109   1.275       .  A
O101       Co121   2.014       .  S
O102        C110   1.258       .  A
O102       Co122   1.948       .  S
O103        C111   1.278       .  A
O103       Co123   1.970       .  S
O104        C110   1.271       .  A
O104       Co121   2.019       .  S
O105        C111   1.284       .  A
O105       Co120   2.023       .  S
O106        C109   1.284       .  A
O106       Co123   2.030   1_556  S
O107        C108   1.261       .  A
O107       Co122   1.993   1_554  S
C108       C1213   1.514       .  S
C109       C1217   1.505       .  S
C110       C1229   1.420       .  S
C111       C1233   1.427       .  S
O112        C125   1.266       .  A
O112       Co120   2.022       .  S
O113        C126   1.256       .  A
O113       Co121   1.949       .  S
O114        C127   1.275   1_556  A
O114       Co122   2.003       .  S
O115        C128   1.277       .  A
O115       Co123   2.022       .  S
O116        C128   1.254   1_556  A
O116       Co121   1.923       .  S
O117        C127   1.266       .  A
O117       Co120   1.959       .  S
O118        C125   1.266       .  A
O118       Co123   2.031       .  S
O119        C126   1.289       .  A
O119       Co122   2.103       .  S
Co120       O124   2.077       .  S
Co121       O124   1.981   1_556  S
Co122       O124   2.098   1_556  S
Co123       O124   2.117       .  S
C125       C1222   1.518       .  S
C126       C1225   1.519       .  S
C127       C1360   1.420   1_554  S
C128       C1240   1.413       .  S
O129        C137   1.281       .  A
O129       Co149   2.027   1_655  S
O130        C138   1.262       .  A
O130       Co150   1.995   1_455  S
O131        C139   1.272       .  A
O131       Co151   2.022       .  S
O132        C140   1.284       .  A
O132       Co152   2.018       .  S
O133        C139   1.258       .  A
O133       Co150   1.952       .  S
O134        C140   1.277       .  A
O134       Co149   1.965       .  S
O135        C138   1.269       .  A
O135       Co152   2.045       .  S
O136        C137   1.273       .  A
O136       Co151   2.006       .  S
C137       C1302   1.499       .  S
C138       C1197   1.511       .  S
C139       C1205   1.423       .  S
C140       C1209   1.422       .  S
O141        C154   1.264       .  A
O141       Co149   2.026       .  S
O142        C155   1.290       .  A
O142       Co150   2.100       .  S
O143        C156   1.253   1_655  A
O143       Co151   1.920       .  S
O144        C157   1.267   1_455  A
O144       Co152   1.960       .  S
O145        C157   1.274       .  A
O145       Co150   1.999       .  S
O146        C156   1.278       .  A
O146       Co149   2.028       .  S
O147        C154   1.266       .  A
O147       Co152   2.019       .  S
O148        C155   1.254       .  A
O148       Co151   1.937       .  S
Co149       O153   2.111       .  S
Co150       O153   2.094   1_655  S
Co151       O153   1.980   1_655  S
Co152       O153   2.072       .  S
C154       C1214   1.513       .  S
C155       C1193   1.512       .  S
C156       C1353   1.415       .  S
C157       C1204   1.418       .  S
C158        C159   1.398       .  A
C158        C163   1.399       .  A
C158       C1185   1.440       .  S
C159        C160   1.400       .  A
C159       C1212   1.436       .  S
C160        C161   1.401       .  A
C160       C1236   1.440       .  S
C161        C162   1.403       .  A
C161       C1181   1.441       .  S
C162        C163   1.401       .  A
C162       C1177   1.438       .  S
C163       C1189   1.438       .  S
O164        C172   1.273       .  A
O164       Co184   2.026       .  S
O165        C173   1.267       .  A
O165       Co185   2.000       .  S
O166        C174   1.275       .  A
O166       Co186   2.019       .  S
O167        C175   1.275       .  A
O167       Co187   2.015       .  S
O168        C174   1.263       .  A
O168       Co185   1.951       .  S
O169        C175   1.266       .  A
O169       Co184   1.960       .  S
O170        C173   1.271       .  A
O170       Co187   2.050       .  S
O171        C172   1.270       .  A
O171       Co186   2.040       .  S
C172       C1250   1.521       .  S
C173       C1161   1.516       .  S
C174       C1173   1.421       .  S
C175       C1192   1.423       .  S
O176        C189   1.274       .  A
O176       Co184   2.062       .  S
O177        C190   1.272       .  A
O177       Co185   2.050       .  S
O178        C191   1.267       .  A
O178       Co186   1.964       .  S
O179        C192   1.263       .  A
O179       Co187   1.954       .  S
O180        C192   1.274       .  A
O180       Co185   2.018       .  S
O181        C191   1.274       .  A
O181       Co184   2.012       .  S
O182        C189   1.264       .  A
O182       Co187   1.988       .  S
O183        C190   1.267       .  A
O183       Co186   1.997       .  S
Co184       O188   2.126       .  S
Co185       O188   2.116       .  S
Co186       O188   2.109       .  S
Co187       O188   2.112       .  S
C189       C1153   1.514       .  S
C190       C1158   1.514       .  S
C191       C1172   1.424       .  S
C192       C1165   1.422       .  S
C193        C194   1.398       .  A
C193        C198   1.398       .  A
C193       C1141   1.439       .  S
C194        C195   1.401       .  A
C194       C1257   1.434       .  S
C195        C196   1.400       .  A
C195       C1176   1.438       .  S
C196        C197   1.400       .  A
C196       C1145   1.438       .  S
C197        C198   1.399       .  A
C197       C1152   1.435       .  S
C198       C1232   1.435       .  S
O199        C207   1.271       .  A
O199       Co219   2.052       .  S
O200        C208   1.268       .  A
O200       Co220   2.034       .  S
O201        C209   1.265       .  A
O201       Co221   1.953       .  S
O202        C210   1.269       .  A
O202       Co222   1.967       .  S
O203        C209   1.276       .  A
O203       Co220   2.020       .  S
O204        C210   1.275       .  A
O204       Co219   2.014       .  S
O205        C208   1.275       .  A
O205       Co222   2.034       .  S
O206        C207   1.264       .  A
O206       Co221   1.987       .  S
C207       C1218   1.508       .  S
C208       C1121   1.525       .  S
C209       C1129   1.422       .  S
C210       C1137   1.425       .  S
O211        C224   1.266       .  A
O211       Co219   1.994       .  S
O212        C225   1.268       .  A
O212       Co220   2.007       .  S
O213        C226   1.274       .  A
O213       Co221   2.016       .  S
O214        C227   1.276       .  A
O214       Co222   2.014       .  S
O215        C227   1.269       .  A
O215       Co220   1.964       .  S
O216        C226   1.264       .  A
O216       Co219   1.956       .  S
O217        C224   1.273       .  A
O217       Co222   2.055       .  S
O218        C225   1.269       .  A
O218       Co221   2.036       .  S
Co219       O223   2.117       .  S
Co220       O223   2.111       .  S
Co221       O223   2.109       .  S
Co222       O223   2.124       .  S
C224       C1118   1.514       .  S
C225       C1125   1.511       .  S
C226       C1149   1.421       .  S
C227       C1136   1.424       .  S
C228        C229   1.400       .  A
C228        C233   1.398       .  A
C228       C1109   1.440       .  S
C229        C230   1.403       .  A
C229       C1113   1.434       .  S
C230        C231   1.400       .  A
C230       C1344   1.441       .  S
C231        C232   1.400       .  A
C231       C1101   1.438       .  S
C232        C233   1.397       .  A
C232       C1100   1.437       .  S
C233       C1108   1.438       .  S
O234        C242   1.276       .  A
O234       Co254   2.066       .  S
O235        C243   1.275       .  A
O235       Co255   2.014       .  S
O236        C244   1.257       .  A
O236       Co256   1.952       .  S
O237        C245   1.272       .  A
O237       Co257   1.960       .  S
O238        C244   1.271       .  A
O238       Co255   2.017       .  S
O239        C245   1.281       .  A
O239       Co254   2.016       .  S
O240        C243   1.284       .  A
O240       Co257   2.040       .  S
O241        C242   1.266       .  A
O241       Co256   2.007       .  S
C242       C1326   1.531       .  S
C243       C1246   1.510       .  S
C244       C1085   1.421       .  S
C245       C1092   1.423       .  S
O246        C259   1.267       .  A
O246       Co254   2.011       .  S
O247        C260   1.254       .  A
O247       Co255   1.941       .  S
O248        C261   1.268       .  A
O248       Co256   1.990       .  S
O249        C262   1.274       .  A
O249       Co257   2.016       .  S
O250        C262   1.253       .  A
O250       Co255   1.928       .  S
O251        C261   1.262       .  A
O251       Co254   1.962       .  S
O252        C259   1.273       .  A
O252       Co257   2.066       .  S
O253        C260   1.294       .  A
O253       Co256   2.118       .  S
Co254       O258   2.073       .  S
Co255       O258   1.985       .  S
Co256       O258   2.111       .  S
Co257       O258   2.130       .  S
C259       C1082   1.535       .  S
C260       C1078   1.522       .  S
C261       C1116   1.417       .  S
C262       C1093   1.414       .  S
O263        C271   1.271       .  A
O263       Co283   2.030   1_655  S
O264        C272   1.269       .  A
O264       Co284   2.003   1_455  S
O265        C273   1.279       .  A
O265       Co285   2.027       .  S
O266        C274   1.275       .  A
O266       Co286   2.008       .  S
O267        C273   1.269       .  A
O267       Co284   1.958       .  S
O268        C274   1.269       .  A
O268       Co283   1.963       .  S
O269        C272   1.273       .  A
O269       Co286   2.065       .  S
O270        C271   1.265       .  A
O270       Co285   2.026       .  S
C271       C1290   1.515       .  S
C272       C1062   1.528       .  S
C273       C1069   1.425       .  S
C274       C1073   1.421       .  S
O275        C288   1.272       .  A
O275       Co283   2.056       .  S
O276        C289   1.265       .  A
O276       Co284   2.027       .  S
O277        C290   1.269   1_655  A
O277       Co285   1.959       .  S
O278        C291   1.267   1_455  A
O278       Co286   1.956       .  S
O279        C291   1.276       .  A
O279       Co284   2.017       .  S
O280        C290   1.279       .  A
O280       Co283   2.022       .  S
O281        C288   1.271       .  A
O281       Co286   2.016       .  S
O282        C289   1.268       .  A
O282       Co285   2.006       .  S
Co283       O287   2.117   1_455  S
Co284       O287   2.107       .  S
Co285       O287   2.112       .  S
Co286       O287   2.113   1_455  S
C288       C1058   1.529       .  S
C289       C1053   1.503       .  S
C290       C1284   1.423       .  S
C291       C1068   1.421       .  S
C292        C293   1.400       .  A
C292        C297   1.397       .  A
C292       C1033   1.435       .  S
C293        C294   1.401       .  A
C293       C1076   1.436       .  S
C294        C295   1.401       .  A
C294       C1037   1.440       .  S
C295        C296   1.401       .  A
C295       C1045   1.437       .  S
C296        C297   1.399       .  A
C296       C1041   1.437       .  S
C297       C1052   1.439       .  S
O298        C306   1.276       .  A
O298       Co318   2.036   1_556  S
O299        C307   1.276       .  A
O299       Co319   2.043   1_554  S
O300        C308   1.278       .  A
O300       Co320   2.022       .  S
O301        C309   1.278       .  A
O301       Co321   2.019       .  S
O302        C308   1.269       .  A
O302       Co319   1.960       .  S
O303        C309   1.268       .  A
O303       Co318   1.959       .  S
O304        C307   1.266       .  A
O304       Co321   2.029       .  S
O305        C306   1.265       .  A
O305       Co320   2.026       .  S
C306       C1318   1.520       .  S
C307       C1018   1.525       .  S
C308       C1032   1.425       .  S
C309       C1049   1.422       .  S
O310        C323   1.274       .  A
O310       Co318   2.064       .  S
O311        C324   1.274       .  A
O311       Co319   2.062       .  S
O312        C325   1.268   1_556  A
O312       Co320   1.962       .  S
O313        C326   1.266   1_554  A
O313       Co321   1.958       .  S
O314        C326   1.275       .  A
O314       Co319   2.016       .  S
O315        C325   1.274       .  A
O315       Co318   2.010       .  S
O316        C323   1.264       .  A
O316       Co321   1.984       .  S
O317        C324   1.264       .  A
O317       Co320   1.985       .  S
Co318       O322   2.127   1_554  S
Co319       O322   2.127       .  S
Co320       O322   2.101       .  S
Co321       O322   2.099   1_554  S
C323       C1013   1.515       .  S
C324       C1009   1.514       .  S
C325       C1021   1.421       .  S
C326       C1025   1.422       .  S
C327        C328   1.399       .  A
C327        C332   1.399       .  A
C327        C996   1.438       .  S
C328        C329   1.401       .  A
C328        C997   1.439       .  S
C329        C330   1.402       .  A
C329       C1336   1.436       .  S
C330        C331   1.400       .  A
C330       C1029   1.439       .  S
C331        C332   1.398       .  A
C331       C1004   1.439       .  S
C332       C1008   1.436       .  S
O333        C341   1.264       .  A
O333       Co353   2.026       .  S
O334        C342   1.270       .  A
O334       Co354   2.052       .  S
O335        C343   1.270       .  A
O335       Co355   1.963       .  S
O336        C344   1.266       .  A
O336       Co356   1.950       .  S
O337        C343   1.278       .  A
O337       Co354   2.018       .  S
O338        C344   1.279       .  A
O338       Co353   2.023       .  S
O339        C342   1.266       .  A
O339       Co356   1.999       .  S
O340        C341   1.272       .  A
O340       Co355   2.029       .  S
C341        C969   1.515       .  S
C342        C977   1.518       .  S
C343        C992   1.425       .  S
C344        C985   1.419       .  S
O345        C358   1.267       .  A
O345       Co353   2.005       .  S
O346        C359   1.265       .  A
O346       Co354   1.998       .  S
O347        C360   1.280       .  A
O347       Co355   2.023       .  S
O348        C361   1.277       .  A
O348       Co356   2.022       .  S
O349        C361   1.265       .  A
O349       Co354   1.950       .  S
O350        C360   1.269       .  A
O350       Co353   1.958       .  S
O351        C358   1.266       .  A
O351       Co356   2.031       .  S
O352        C359   1.271       .  A
O352       Co355   2.049       .  S
Co353       O357   2.109       .  S
Co354       O357   2.108       .  S
Co355       O357   2.118       .  S
Co356       O357   2.106       .  S
C358        C981   1.506       .  S
C359        C974   1.515       .  S
C360       C1105   1.422       .  S
C361       C1005   1.420       .  S
O362        C370   1.269       .  A
O362       Co382   2.003   1_565  S
O363        C371   1.272       .  A
O363       Co383   2.020   1_545  S
O364        C372   1.275       .  A
O364       Co384   2.020       .  S
O365        C373   1.273       .  A
O365       Co385   2.013       .  S
O366        C372   1.266       .  A
O366       Co383   1.960       .  S
O367        C373   1.263       .  A
O367       Co382   1.954       .  S
O368        C371   1.275       .  A
O368       Co385   2.055       .  S
O369        C370   1.272       .  A
O369       Co384   2.054       .  S
C370       C1221   1.519       .  S
C371        C957   1.527       .  S
C372       C1184   1.427       .  S
C373       C1048   1.421       .  S
O374        C387   1.274       .  A
O374       Co382   2.062       .  S
O375        C388   1.274       .  A
O375       Co383   2.060       .  S
O376        C389   1.267   1_565  A
O376       Co384   1.968       .  S
O377        C390   1.268   1_545  A
O377       Co385   1.970       .  S
O378        C390   1.272       .  A
O378       Co383   2.008       .  S
O379        C389   1.273       .  A
O379       Co382   2.013       .  S
O380        C387   1.272       .  A
O380       Co385   2.012       .  S
O381        C388   1.268       .  A
O381       Co384   2.000       .  S
Co382       O386   2.118       .  S
Co383       O386   2.128   1_565  S
Co384       O386   2.118   1_565  S
Co385       O386   2.113       .  S
C387        C954   1.530       .  S
C388        C950   1.521       .  S
C389        C964   1.428       .  S
C390        C965   1.425       .  S
C391        C392   1.398   1_545  A
C391        C396   1.398       .  A
C391        C989   1.440       .  S
C392        C393   1.399       .  A
C392        C940   1.436       .  S
C393        C394   1.399       .  A
C393        C968   1.438       .  S
C394        C395   1.400       .  A
C394        C945   1.440       .  S
C395        C396   1.401   1_565  A
C395        C936   1.437       .  S
C396        C944   1.436       .  S
O397        C405   1.271       .  A
O397       Co417   2.018       .  S
O398        C406   1.274       .  A
O398       Co418   2.020       .  S
O399        C407   1.276       .  A
O399       Co419   2.018       .  S
O400        C408   1.278       .  A
O400       Co420   2.019       .  S
O401        C407   1.272       .  A
O401       Co418   1.970       .  S
O402        C408   1.269       .  A
O402       Co417   1.963       .  S
O403        C406   1.269       .  A
O403       Co420   2.040       .  S
O404        C405   1.269       .  A
O404       Co419   2.035       .  S
C405       C1162   1.513       .  S
C406        C921   1.524       .  S
C407        C925   1.429       .  S
C408        C948   1.425       .  S
O409        C422   1.271       .  A
O409       Co417   2.044       .  S
O410        C423   1.270       .  A
O410       Co418   2.047       .  S
O411        C424   1.269       .  A
O411       Co419   1.963       .  S
O412        C425   1.268       .  A
O412       Co420   1.958       .  S
O413        C425   1.278       .  A
O413       Co418   2.020       .  S
O414        C424   1.276       .  A
O414       Co417   2.014       .  S
O415        C422   1.270       .  A
O415       Co420   2.016       .  S
O416        C423   1.271       .  A
O416       Co419   2.009       .  S
Co417       O421   2.113       .  S
Co418       O421   2.112       .  S
Co419       O421   2.108       .  S
Co420       O421   2.115       .  S
C422        C949   1.519       .  S
C423        C917   1.520       .  S
C424       C1180   1.422       .  S
C425        C929   1.424       .  S
O426        C434   1.270       .  A
O426       Co446   2.026       .  S
O427        C435   1.271       .  A
O427       Co447   2.019       .  S
O428        C436   1.281       .  A
O428       Co448   2.028       .  S
O429        C437   1.278       .  A
O429       Co449   2.020       .  S
O430        C436   1.272   1_545  A
O430       Co447   1.961       .  S
O431        C437   1.269   1_565  A
O431       Co446   1.954       .  S
O432        C435   1.265       .  A
O432       Co449   2.027       .  S
O433        C434   1.264       .  A
O433       Co448   2.021       .  S
C434       C1117   1.511       .  S
C435        C973   1.511       .  S
C436        C913   1.425       .  S
C437        C941   1.420       .  S
O438        C451   1.271       .  A
O438       Co446   2.054       .  S
O439        C452   1.264       .  A
O439       Co447   2.020       .  S
O440        C453   1.272       .  A
O440       Co448   1.967       .  S
O441        C454   1.269       .  A
O441       Co449   1.957       .  S
O442        C454   1.279       .  A
O442       Co447   2.023       .  S
O443        C453   1.279       .  A
O443       Co446   2.018       .  S
O444        C451   1.266       .  A
O444       Co449   1.997   1_565  S
O445        C452   1.268       .  A
O445       Co448   2.008   1_545  S
Co446       O450   2.114       .  S
Co447       O450   2.110   1_545  S
Co448       O450   2.106       .  S
Co449       O450   2.099   1_545  S
C451        C905   1.519       .  S
C452        C901   1.500       .  S
C453        C909   1.424       .  S
C454       C1097   1.422       .  S
C455        C456   1.398   1_545  A
C455        C460   1.399       .  A
C455        C961   1.441       .  S
C456        C457   1.400   1_554  A
C456       C1237   1.433       .  S
C457        C458   1.401       .  A
C457       C1140   1.437       .  S
C458        C459   1.399   1_565  A
C458        C916   1.440       .  S
C459        C460   1.399   1_556  A
C459        C896   1.438   1_545  S
C460        C897   1.436       .  S
O461        C469   1.268       .  A
O461       Co481   2.000       .  S
O462        C470   1.266       .  A
O462       Co482   1.995       .  S
O463        C471   1.271       .  A
O463       Co483   2.008       .  S
O464        C472   1.273       .  A
O464       Co484   2.013       .  S
O465        C471   1.264       .  A
O465       Co482   1.962       .  S
O466        C472   1.265       .  A
O466       Co481   1.963       .  S
O467        C470   1.276       .  A
O467       Co484   2.064       .  S
O468        C469   1.278       .  A
O468       Co483   2.075       .  S
C469       C1017   1.529       .  S
C470        C882   1.519       .  S
C471        C885   1.423       .  S
C472        C900   1.424       .  S
O473        C486   1.273       .  A
O473       Co481   2.049       .  S
O474        C487   1.274       .  A
O474       Co482   2.059       .  S
O475        C488   1.263       .  A
O475       Co483   1.954       .  S
O476        C489   1.265       .  A
O476       Co484   1.964       .  S
O477        C489   1.273       .  A
O477       Co482   2.012       .  S
O478        C488   1.273       .  A
O478       Co481   2.015       .  S
O479        C486   1.273       .  A
O479       Co484   2.028       .  S
O480        C487   1.273       .  A
O480       Co483   2.017       .  S
Co481       O485   2.110       .  S
Co482       O485   2.116       .  S
Co483       O485   2.122       .  S
Co484       O485   2.131       .  S
C486        C953   1.527       .  S
C487        C877   1.530       .  S
C488       C1044   1.421       .  S
C489        C889   1.425       .  S
O490        C498   1.269       .  A
O490       Co510   2.040       .  S
O491        C499   1.266       .  A
O491       Co511   2.030       .  S
O492        C500   1.269       .  A
O492       Co512   1.957       .  S
O493        C501   1.270       .  A
O493       Co513   1.956       .  S
O494        C500   1.280       .  A
O494       Co511   2.024       .  S
O495        C501   1.279       .  A
O495       Co510   2.022       .  S
O496        C499   1.270       .  A
O496       Co513   2.021       .  S
O497        C498   1.271       .  A
O497       Co512   2.027       .  S
C498       C1057   1.525       .  S
C499        C978   1.514       .  S
C500        C993   1.422       .  S
C501       C1040   1.425       .  S
O502        C515   1.271       .  A
O502       Co510   2.017       .  S
O503        C516   1.268       .  A
O503       Co511   2.016       .  S
O504        C517   1.279       .  A
O504       Co512   2.020       .  S
O505        C518   1.280       .  A
O505       Co513   2.022       .  S
O506        C518   1.270       .  A
O506       Co511   1.958       .  S
O507        C517   1.271       .  A
O507       Co510   1.963       .  S
O508        C515   1.269       .  A
O508       Co513   2.050       .  S
O509        C516   1.269       .  A
O509       Co512   2.043       .  S
Co510       O514   2.102       .  S
Co511       O514   2.110       .  S
Co512       O514   2.115       .  S
Co513       O514   2.117       .  S
C515        C958   1.529       .  S
C516        C873   1.520       .  S
C517       C1276   1.425       .  S
C518        C937   1.422       .  S
C519        C520   1.400       .  A
C519        C524   1.401       .  A
C519       C1305   1.437       .  S
C520        C521   1.399       .  A
C520       C1208   1.439       .  S
C521        C522   1.400       .  A
C521        C865   1.436       .  S
C522        C523   1.398       .  A
C522        C869   1.437       .  S
C523        C524   1.398       .  A
C523        C932   1.440       .  S
C524        C864   1.435       .  S
O525        C533   1.267       .  A
O525       Co545   2.034       .  S
O526        C534   1.270       .  A
O526       Co546   2.042       .  S
O527        C535   1.268       .  A
O527       Co547   1.953       .  S
O528        C536   1.265       .  A
O528       Co548   1.946       .  S
O529        C535   1.279       .  A
O529       Co546   2.019       .  S
O530        C536   1.279       .  A
O530       Co545   2.024       .  S
O531        C534   1.270       .  A
O531       Co548   2.029       .  S
O532        C533   1.269       .  A
O532       Co547   2.020       .  S
C533        C918   1.516       .  S
C534        C878   1.527       .  S
C535        C852   1.420       .  S
C536        C853   1.419       .  S
O537        C550   1.265       .  A
O537       Co545   1.998       .  S
O538        C551   1.271       .  A
O538       Co546   2.024       .  S
O539        C552   1.278       .  A
O539       Co547   2.019       .  S
O540        C553   1.277       .  A
O540       Co548   2.015       .  S
O541        C553   1.271       .  A
O541       Co546   1.965       .  S
O542        C552   1.268       .  A
O542       Co545   1.957       .  S
O543        C550   1.272       .  A
O543       Co548   2.061       .  S
O544        C551   1.270       .  A
O544       Co547   2.042       .  S
Co545       O549   2.104       .  S
Co546       O549   2.110       .  S
Co547       O549   2.116       .  S
Co548       O549   2.124       .  S
C550        C842   1.523       .  S
C551        C845   1.524       .  S
C552        C872   1.423       .  S
C553        C857   1.424       .  S
C554        C555   1.402       .  A
C554        C559   1.400       .  A
C554       C1072   1.440       .  S
C555        C556   1.401       .  A
C555       C1309   1.438       .  S
C556        C557   1.400       .  A
C556        C836   1.439       .  S
C557        C558   1.400       .  A
C557        C892   1.438       .  S
C558        C559   1.399       .  A
C558        C860   1.438       .  S
C559        C837   1.438       .  S
C560        C561   1.399       .  A
C560        C565   1.398       .  A
C560        C829   1.440       .  S
C561        C562   1.402       .  A
C561       C1096   1.433       .  S
C562        C563   1.399       .  A
C562       C1265   1.441       .  S
C563        C564   1.399       .  A
C563        C825   1.437       .  S
C564        C565   1.398       .  A
C564        C912   1.438       .  S
C565       C1133   1.438       .  S
O566        C574   1.276       .  A
O566       Co586   2.036   1_565  S
O567        C575   1.270       .  A
O567       Co587   2.005   1_545  S
O568        C576   1.275       .  A
O568       Co588   2.020       .  S
O569        C577   1.273       .  A
O569       Co589   2.011       .  S
O570        C576   1.264       .  A
O570       Co587   1.956       .  S
O571        C577   1.266       .  A
O571       Co586   1.964       .  S
O572        C575   1.274       .  A
O572       Co589   2.057       .  S
O573        C574   1.267       .  A
O573       Co588   2.026       .  S
C574       C1226   1.517       .  S
C575        C874   1.522       .  S
C576       C1144   1.423       .  S
C577       C1000   1.424       .  S
O578        C591   1.279       .  A
O578       Co586   2.077       .  S
O579        C592   1.275       .  A
O579       Co587   2.062       .  S
O580        C593   1.269   1_565  A
O580       Co588   1.968       .  S
O581        C594   1.264   1_545  A
O581       Co589   1.960       .  S
O582        C594   1.271       .  A
O582       Co587   2.009       .  S
O583        C593   1.272       .  A
O583       Co586   2.005       .  S
O584        C591   1.269       .  A
O584       Co589   2.000       .  S
O585        C592   1.269       .  A
O585       Co588   1.999       .  S
Co586       O590   2.126   1_545  S
Co587       O590   2.119       .  S
Co588       O590   2.108       .  S
Co589       O590   2.113   1_545  S
C591       C1322   1.530       .  S
C592       C1242   1.521       .  S
C593       C1349   1.422       .  S
C594       C1277   1.421       .  S
O595        C603   1.279       .  A
O595       Co615   2.054       .  S
O596        C604   1.273       .  A
O596       Co616   2.028       .  S
O597        C605   1.279       .  A
O597       Co617   2.029       .  S
O598        C606   1.277       .  A
O598       Co618   2.019       .  S
O599        C605   1.266       .  A
O599       Co616   1.952       .  S
O600        C606   1.269       .  A
O600       Co615   1.963       .  S
O601        C604   1.268       .  A
O601       Co618   2.033       .  S
O602        C603   1.261       .  A
O602       Co617   2.009       .  S
C603       C1077   1.519       .  S
C604        C841   1.519       .  S
C605        C821   1.423       .  S
C606        C817   1.426       .  S
O607        C620   1.278       .  A
O607       Co615   2.071       .  S
O608        C621   1.272       .  A
O608       Co616   2.054       .  S
O609        C622   1.270       .  A
O609       Co617   1.968       .  S
O610        C623   1.266       .  A
O610       Co618   1.962       .  S
O611        C623   1.274       .  A
O611       Co616   2.013       .  S
O612        C622   1.274       .  A
O612       Co615   2.012       .  S
O613        C620   1.263       .  A
O613       Co618   1.980       .  S
O614        C621   1.263       .  A
O614       Co617   1.978       .  S
Co615       O619   2.127       .  S
Co616       O619   2.127       .  S
Co617       O619   2.096       .  S
Co618       O619   2.098       .  S
C620        C970   1.515       .  S
C621       C1054   1.506       .  S
C622       C1112   1.425       .  S
C623        C840   1.423       .  S
C624        C625   1.399       .  A
C624        C629   1.400   1_455  A
C624       C1169   1.438       .  S
C625        C626   1.399   1_455  A
C625       C1261   1.438       .  S
C626        C627   1.398       .  A
C626       C1088   1.435       .  S
C627        C628   1.399       .  A
C627        C824   1.438       .  S
C628        C629   1.399       .  A
C628       C1065   1.436       .  S
C629        C816   1.435       .  S
O630        C638   1.263       .  A
O630       Co650   2.014       .  S
O631        C639   1.277       .  A
O631       Co651   2.075       .  S
O632        C640   1.271       .  A
O632       Co652   1.973       .  S
O633        C641   1.263       .  A
O633       Co653   1.951       .  S
O634        C640   1.274       .  A
O634       Co651   2.007       .  S
O635        C641   1.276       .  A
O635       Co650   2.024       .  S
O636        C639   1.266       .  A
O636       Co653   1.997   1_556  S
O637        C638   1.276       .  A
O637       Co652   2.035   1_554  S
C638       C1194   1.509       .  S
C639       C1122   1.528       .  S
C640        C832   1.425       .  S
C641        C868   1.422       .  S
O642        C655   1.270       .  A
O642       Co650   2.003       .  S
O643        C656   1.274       .  A
O643       Co651   2.034       .  S
O644        C657   1.276       .  A
O644       Co652   2.013       .  S
O645        C658   1.275       .  A
O645       Co653   2.014       .  S
O646        C658   1.266   1_556  A
O646       Co651   1.958       .  S
O647        C657   1.271   1_554  A
O647       Co650   1.966       .  S
O648        C655   1.273       .  A
O648       Co653   2.062       .  S
O649        C656   1.275       .  A
O649       Co652   2.055       .  S
Co650       O654   2.107   1_554  S
Co651       O654   2.122       .  S
Co652       O654   2.118       .  S
Co653       O654   2.116   1_554  S
C655        C846   1.527       .  S
C656       C1081   1.535       .  S
C657        C805   1.423       .  S
C658        C809   1.423       .  S
C659        C660   1.399       .  A
C659        C664   1.399       .  A
C659        C801   1.436       .  S
C660        C661   1.399   1_556  A
C660       C1132   1.437       .  S
C661        C662   1.398       .  A
C661        C812   1.437       .  S
C662        C663   1.399       .  A
C662        C849   1.436       .  S
C663        C664   1.400   1_554  A
C663        C888   1.438       .  S
C664       C1028   1.437       .  S
O665        C673   1.269       .  A
O665       Co685   2.017   1_556  S
O666        C674   1.272       .  A
O666       Co686   2.034   1_554  S
O667        C675   1.280       .  A
O667       Co687   2.025       .  S
O668        C676   1.282       .  A
O668       Co688   2.030       .  S
O669        C675   1.270       .  A
O669       Co686   1.955       .  S
O670        C676   1.270       .  A
O670       Co685   1.955       .  S
O671        C674   1.263       .  A
O671       Co688   2.021       .  S
O672        C673   1.264       .  A
O672       Co687   2.026       .  S
C673       C1330   1.511       .  S
C674        C881   1.516       .  S
C675       C1104   1.423       .  S
C676        C833   1.424       .  S
O677        C690   1.265       .  A
O677       Co685   2.024       .  S
O678        C691   1.269       .  A
O678       Co686   2.046       .  S
O679        C692   1.266   1_556  A
O679       Co687   1.950       .  S
O680        C693   1.271   1_554  A
O680       Co688   1.963       .  S
O681        C693   1.280       .  A
O681       Co686   2.023       .  S
O682        C692   1.279       .  A
O682       Co685   2.025       .  S
O683        C690   1.266       .  A
O683       Co688   2.002       .  S
O684        C691   1.261       .  A
O684       Co687   1.983       .  S
Co685       O689   2.109       .  S
Co686       O689   2.115   1_556  S
Co687       O689   2.098   1_556  S
Co688       O689   2.103       .  S
C690       C1294   1.500       .  S
C691        C902   1.506       .  S
C692       C1348   1.420       .  S
C693        C893   1.425       .  S
O694        C702   1.265       .  A
O694       Co714   2.026       .  S
O695        C703   1.264       .  A
O695       Co715   2.020       .  S
O696        C704   1.267       .  A
O696       Co716   1.953       .  S
O697        C705   1.268       .  A
O697       Co717   1.953       .  S
O698        C704   1.279       .  A
O698       Co715   2.027       .  S
O699        C705   1.279       .  A
O699       Co714   2.024       .  S
O700        C703   1.271       .  A
O700       Co717   2.026       .  S
O701        C702   1.270       .  A
O701       Co716   2.021       .  S
C702       C1157   1.510       .  S
C703       C1010   1.510       .  S
C704       C1001   1.423       .  S
C705       C1148   1.422       .  S
O706        C719   1.267       .  A
O706       Co714   1.996       .  S
O707        C720   1.264       .  A
O707       Co715   1.987       .  S
O708        C721   1.278       .  A
O708       Co716   2.019       .  S
O709        C722   1.277       .  A
O709       Co717   2.016       .  S
O710        C722   1.268       .  A
O710       Co715   1.958       .  S
O711        C721   1.269       .  A
O711       Co714   1.964       .  S
O712        C719   1.270       .  A
O712       Co717   2.052       .  S
O713        C720   1.270       .  A
O713       Co716   2.051       .  S
Co714       O718   2.102       .  S
Co715       O718   2.099       .  S
Co716       O718   2.120       .  S
Co717       O718   2.119       .  S
C719       C1126   1.515       .  S
C720        C982   1.510       .  S
C721        C797   1.424       .  S
C722        C804   1.421       .  S
O723        C731   1.267       .  A
O723       Co743   2.034       .  S
O724        C732   1.266       .  A
O724       Co744   2.029       .  S
O725        C733   1.268       .  A
O725       Co745   1.957       .  S
O726        C734   1.268       .  A
O726       Co746   1.955       .  S
O727        C733   1.278       .  A
O727       Co744   2.019       .  S
O728        C734   1.278       .  A
O728       Co743   2.023       .  S
O729        C732   1.271       .  A
O729       Co746   2.021       .  S
O730        C731   1.272       .  A
O730       Co745   2.030       .  S
C731       C1297   1.520       .  S
C732        C906   1.514       .  S
C733        C933   1.421       .  S
C734       C1272   1.423       .  S
O735        C748   1.264       .  A
O735       Co743   1.991       .  S
O736        C749   1.269       .  A
O736       Co744   2.014       .  S
O737        C750   1.277       .  A
O737       Co745   2.016       .  S
O738        C751   1.277       .  A
O738       Co746   2.017       .  S
O739        C751   1.270       .  A
O739       Co744   1.962       .  S
O740        C750   1.265       .  A
O740       Co743   1.952       .  S
O741        C748   1.270       .  A
O741       Co746   2.051       .  S
O742        C749   1.273       .  A
O742       Co745   2.049       .  S
Co743       O747   2.102       .  S
Co744       O747   2.110       .  S
Co745       O747   2.116       .  S
Co746       O747   2.122       .  S
C748       C1254   1.513       .  S
C749        C922   1.521       .  S
C750        C861   1.419       .  S
C751        C828   1.423       .  S
O752        C760   1.266       .  A
O752       Co772   2.009       .  S
O753        C761   1.272       .  A
O753       Co773   2.030       .  S
O754        C762   1.284       .  A
O754       Co774   2.029       .  S
O755        C763   1.283       .  A
O755       Co775   2.026       .  S
O756        C762   1.274       .  A
O756       Co773   1.961       .  S
O757        C763   1.269       .  A
O757       Co772   1.947       .  S
O758        C761   1.265       .  A
O758       Co775   2.031       .  S
O759        C760   1.264       .  A
O759       Co774   2.029       .  S
C760       C1198   1.509       .  S
C761       C1061   1.523       .  S
C762        C796   1.427       .  S
C763        C813   1.419       .  S
O764        C777   1.263       .  A
O764       Co772   2.025       .  S
O765        C778   1.264       .  A
O765       Co773   2.025       .  S
O766        C779   1.273       .  A
O766       Co774   1.964       .  S
O767        C780   1.271       .  A
O767       Co775   1.954       .  S
O768        C780   1.282       .  A
O768       Co773   2.022       .  S
O769        C779   1.282       .  A
O769       Co772   2.026       .  S
O770        C777   1.268       .  A
O770       Co775   2.017       .  S
O771        C778   1.269       .  A
O771       Co774   2.019       .  S
Co772       O776   2.101       .  S
Co773       O776   2.105       .  S
Co774       O776   2.106       .  S
Co775       O776   2.100       .  S
C777       C1154   1.511       .  S
C778       C1014   1.512       .  S
C779       C1188   1.426       .  S
C780       C1036   1.419       .  S
C781        C782   1.400       .  A
C781        C786   1.399       .  A
C781        C856   1.435       .  S
C782        C783   1.403       .  A
C782        C928   1.442       .  S
C783        C784   1.401       .  A
C783       C1168   1.437       .  S
C784        C785   1.400       .  A
C784        C800   1.440       .  S
C785        C786   1.398       .  A
C785        C988   1.436       .  S
C786        C820   1.441       .  S
C787        C788   1.399       .  A
C787        C792   1.399   1_454  A
C787        C793   1.441       .  S
C788        C789   1.401   1_554  A
C788       C1024   1.436       .  S
C789        C790   1.400       .  A
C789       C1337   1.440       .  S
C790        C791   1.401   1_455  A
C790       C1089   1.439       .  S
C791        C792   1.400       .  A
C791        C808   1.438       .  S
C792       C1201   1.436   1_556  S
C793        C794   1.200       .  T
C794        C795   1.402       .  S
C795        C796   1.200       .  T
C797        C798   1.198       .  T
C798        C799   1.400       .  S
C799        C800   1.199       .  T
C801        C802   1.196       .  T
C802        C803   1.395       .  S
C803        C804   1.196       .  T
C805        C806   1.198       .  T
C806        C807   1.399       .  S
C807        C808   1.198       .  T
C809        C810   1.197       .  T
C810        C811   1.397       .  S
C811        C812   1.197       .  T
C813        C814   1.195       .  T
C814        C815   1.393       .  S
C815        C816   1.195   1_455  T
C817        C818   1.199       .  T
C818        C819   1.399       .  S
C819        C820   1.198       .  T
C821        C822   1.197       .  T
C822        C823   1.396       .  S
C823        C824   1.197       .  T
C825        C826   1.198       .  T
C826        C827   1.399       .  S
C827        C828   1.198       .  T
C829        C830   1.200       .  T
C830        C831   1.401       .  S
C831        C832   1.199       .  T
C833        C834   1.198       .  T
C834        C835   1.398       .  S
C835        C836   1.197       .  T
C837        C838   1.197       .  T
C838        C839   1.397       .  S
C839        C840   1.197       .  T
C841        C842   1.361       .  D
C841        H843   1.088       .  S
C842        H844   1.088       .  S
C845        C846   1.366       .  D
C845        H847   1.088       .  S
C846        H848   1.088       .  S
C849        C850   1.196       .  T
C850        C851   1.395       .  S
C851        C852   1.195       .  T
C853        C854   1.195       .  T
C854        C855   1.392       .  S
C855        C856   1.194       .  T
C857        C858   1.198       .  T
C858        C859   1.399       .  S
C859        C860   1.198       .  T
C861        C862   1.194       .  T
C862        C863   1.391       .  S
C863        C864   1.194       .  T
C865        C866   1.195       .  T
C866        C867   1.394       .  S
C867        C868   1.196       .  T
C869        C870   1.197       .  T
C870        C871   1.398       .  S
C871        C872   1.198       .  T
C873        C874   1.363       .  D
C873        H875   1.088       .  S
C874        H876   1.088       .  S
C877        C878   1.368       .  D
C877        H879   1.088       .  S
C878        H880   1.088       .  S
C881        C882   1.358       .  D
C881        H883   1.087       .  S
C882        H884   1.086       .  S
C885        C886   1.198       .  T
C886        C887   1.398       .  S
C887        C888   1.197       .  T
C889        C890   1.198       .  T
C890        C891   1.399       .  S
C891        C892   1.198       .  T
C893        C894   1.198       .  T
C894        C895   1.399   1_545  S
C895        C896   1.198       .  T
C897        C898   1.197       .  T
C898        C899   1.397       .  S
C899        C900   1.197       .  T
C901        C902   1.353       .  D
C901        H903   1.085       .  S
C902        H904   1.084       .  S
C905        C906   1.360       .  D
C905        H907   1.086       .  S
C906        H908   1.087       .  S
C909        C910   1.199       .  T
C910        C911   1.401       .  S
C911        C912   1.199       .  T
C913        C914   1.199       .  T
C914        C915   1.400       .  S
C915        C916   1.199       .  T
C917        C918   1.363       .  D
C917        H919   1.088       .  S
C918        H920   1.088       .  S
C921        C922   1.367       .  D
C921        H923   1.086       .  S
C922        H924   1.087       .  S
C925        C926   1.201       .  T
C926        C927   1.402       .  S
C927        C928   1.199       .  T
C929        C930   1.198       .  T
C930        C931   1.398       .  S
C931        C932   1.198       .  T
C933        C934   1.197       .  T
C934        C935   1.396       .  S
C935        C936   1.196       .  T
C937        C938   1.197       .  T
C938        C939   1.398   1_545  S
C939        C940   1.198       .  T
C941        C942   1.196       .  T
C942        C943   1.393       .  S
C943        C944   1.194       .  T
C945        C946   1.199       .  T
C946        C947   1.400       .  S
C947        C948   1.199       .  T
C949        C950   1.362       .  D
C949        H951   1.086       .  S
C950        H952   1.085       .  S
C953        C954   1.367       .  D
C953        H955   1.087       .  S
C954        H956   1.087       .  S
C957        C958   1.369       .  D
C957        H959   1.088       .  S
C958        H960   1.088       .  S
C961        C962   1.200       .  T
C962        C963   1.403       .  S
C963        C964   1.201       .  T
C965        C966   1.199       .  T
C966        C967   1.401       .  S
C967        C968   1.199       .  T
C969        C970   1.355       .  D
C969        H971   1.086       .  S
C970        H972   1.086       .  S
C973        C974   1.357       .  D
C973        H975   1.087       .  S
C974        H976   1.087       .  S
C977        C978   1.360       .  D
C977        H979   1.088       .  S
C978        H980   1.089       .  S
C981        C982   1.356       .  D
C981        H983   1.084       .  S
C982        H984   1.084       .  S
C985        C986   1.194       .  T
C986        C987   1.391       .  S
C987        C988   1.194       .  T
C989        C990   1.199       .  T
C990        C991   1.400       .  S
C991        C992   1.199       .  T
C993        C994   1.197       .  T
C994        C995   1.396       .  S
C995        C996   1.197       .  T
C997        C998   1.198       .  T
C998        C999   1.398       .  S
C999       C1000   1.198       .  T
C1001      C1002   1.197       .  T
C1002      C1003   1.396       .  S
C1003      C1004   1.196       .  T
C1005      C1006   1.196       .  T
C1006      C1007   1.393       .  S
C1007      C1008   1.195       .  T
C1009      C1010   1.356       .  D
C1009      H1011   1.084       .  S
C1010      H1012   1.085       .  S
C1013      C1014   1.357       .  D
C1013      H1015   1.084       .  S
C1014      H1016   1.084       .  S
C1017      C1018   1.363       .  D
C1017      H1019   1.088       .  S
C1018      H1020   1.088       .  S
C1021      C1022   1.196       .  T
C1022      C1023   1.395       .  S
C1023      C1024   1.196       .  T
C1025      C1026   1.196       .  T
C1026      C1027   1.395       .  S
C1027      C1028   1.196       .  T
C1029      C1030   1.197       .  T
C1030      C1031   1.399       .  S
C1031      C1032   1.199       .  T
C1033      C1034   1.195       .  T
C1034      C1035   1.394       .  S
C1035      C1036   1.195       .  T
C1037      C1038   1.198       .  T
C1038      C1039   1.400       .  S
C1039      C1040   1.199       .  T
C1041      C1042   1.196       .  T
C1042      C1043   1.395       .  S
C1043      C1044   1.196       .  T
C1045      C1046   1.195       .  T
C1046      C1047   1.395       .  S
C1047      C1048   1.196       .  T
C1049      C1050   1.197       .  T
C1050      C1051   1.398       .  S
C1051      C1052   1.197       .  T
C1053      C1054   1.353       .  D
C1053      H1055   1.084       .  S
C1054      H1056   1.084       .  S
C1057      C1058   1.367       .  D
C1057      H1059   1.088       .  S
C1058      H1060   1.088       .  S
C1061      C1062   1.365       .  D
C1061      H1063   1.088       .  S
C1062      H1064   1.088       .  S
C1065      C1066   1.195       .  T
C1066      C1067   1.394       .  S
C1067      C1068   1.196       .  T
C1069      C1070   1.198       .  T
C1070      C1071   1.397       .  S
C1071      C1072   1.197       .  T
C1073      C1074   1.197       .  T
C1074      C1075   1.397       .  S
C1075      C1076   1.197       .  T
C1077      C1078   1.350       .  D
C1077      H1079   1.089       .  S
C1078      H1080   1.089       .  S
C1081      C1082   1.368       .  D
C1081      H1083   1.087       .  S
C1082      H1084   1.087       .  S
C1085      C1086   1.196       .  T
C1086      C1087   1.395       .  S
C1087      C1088   1.196       .  T
C1089      C1090   1.198   1_455  T
C1090      C1091   1.398       .  S
C1091      C1092   1.198       .  T
C1093      C1094   1.192       .  T
C1094      C1095   1.391       .  S
C1095      C1096   1.195       .  T
C1097      C1098   1.197       .  T
C1098      C1099   1.396       .  S
C1099      C1100   1.196       .  T
C1101      C1102   1.196       .  T
C1102      C1103   1.396       .  S
C1103      C1104   1.197       .  T
C1105      C1106   1.197       .  T
C1106      C1107   1.397       .  S
C1107      C1108   1.198       .  T
C1109      C1110   1.199       .  T
C1110      C1111   1.401       .  S
C1111      C1112   1.199       .  T
C1113      C1114   1.195       .  T
C1114      C1115   1.392       .  S
C1115      C1116   1.194       .  T
C1117      C1118   1.356       .  D
C1117      H1119   1.086       .  S
C1118      H1120   1.085       .  S
C1121      C1122   1.362       .  D
C1121      H1123   1.088       .  S
C1122      H1124   1.087       .  S
C1125      C1126   1.360       .  D
C1125      H1127   1.084       .  S
C1126      H1128   1.084       .  S
C1129      C1130   1.197       .  T
C1130      C1131   1.397       .  S
C1131      C1132   1.197       .  T
C1133      C1134   1.198       .  T
C1134      C1135   1.399       .  S
C1135      C1136   1.198       .  T
C1137      C1138   1.198       .  T
C1138      C1139   1.398       .  S
C1139      C1140   1.197       .  T
C1141      C1142   1.197       .  T
C1142      C1143   1.396       .  S
C1143      C1144   1.197       .  T
C1145      C1146   1.196       .  T
C1146      C1147   1.395       .  S
C1147      C1148   1.196       .  T
C1149      C1150   1.196       .  T
C1150      C1151   1.395       .  S
C1151      C1152   1.195       .  T
C1153      C1154   1.357       .  D
C1153      H1155   1.084       .  S
C1154      H1156   1.085       .  S
C1157      C1158   1.357       .  D
C1157      H1159   1.087       .  S
C1158      H1160   1.087       .  S
C1161      C1162   1.359       .  D
C1161      H1163   1.088       .  S
C1162      H1164   1.089       .  S
C1165      C1166   1.197       .  T
C1166      C1167   1.395       .  S
C1167      C1168   1.196       .  T
C1169      C1170   1.198       .  T
C1170      C1171   1.399       .  S
C1171      C1172   1.198       .  T
C1173      C1174   1.196       .  T
C1174      C1175   1.395       .  S
C1175      C1176   1.196       .  T
C1177      C1178   1.196       .  T
C1178      C1179   1.395       .  S
C1179      C1180   1.197       .  T
C1181      C1182   1.199       .  T
C1182      C1183   1.401       .  S
C1183      C1184   1.200       .  T
C1185      C1186   1.199       .  T
C1186      C1187   1.401       .  S
C1187      C1188   1.199       .  T
C1189      C1190   1.197       .  T
C1190      C1191   1.397       .  S
C1191      C1192   1.197       .  T
C1193      C1194   1.349       .  D
C1193      H1195   1.084       .  S
C1194      H1196   1.084       .  S
C1197      C1198   1.357       .  D
C1197      H1199   1.085       .  S
C1198      H1200   1.085       .  S
C1201      C1202   1.196       .  T
C1202      C1203   1.395       .  S
C1203      C1204   1.195       .  T
C1205      C1206   1.197       .  T
C1206      C1207   1.397       .  S
C1207      C1208   1.197       .  T
C1209      C1210   1.198       .  T
C1210      C1211   1.399       .  S
C1211      C1212   1.198       .  T
C1213      C1214   1.358       .  D
C1213      H1215   1.083       .  S
C1214      H1216   1.084       .  S
C1217      C1218   1.355       .  D
C1217      H1219   1.089       .  S
C1218      H1220   1.088       .  S
C1221      C1222   1.363       .  D
C1221      H1223   1.084       .  S
C1222      H1224   1.085       .  S
C1225      C1226   1.353       .  D
C1225      H1227   1.088       .  S
C1226      H1228   1.088       .  S
C1229      C1230   1.195       .  T
C1230      C1231   1.393       .  S
C1231      C1232   1.194       .  T
C1233      C1234   1.201       .  T
C1234      C1235   1.405       .  S
C1235      C1236   1.202       .  T
C1237      C1238   1.193       .  T
C1238      C1239   1.388       .  S
C1239      C1240   1.191       .  T
C1241      C1242   1.361       .  D
C1241      H1243   1.088       .  S
C1242      H1244   1.088       .  S
C1245      C1246   1.357       .  D
C1245      H1247   1.087       .  S
C1246      H1248   1.088       .  S
C1249      C1250   1.364       .  D
C1249      H1251   1.087       .  S
C1250      H1252   1.088       .  S
C1253      C1254   1.357       .  D
C1253      H1255   1.084       .  S
C1254      H1256   1.083       .  S
C1257      C1258   1.193       .  T
C1258      C1259   1.389       .  S
C1259      C1260   1.193       .  T
C1261      C1262   1.198       .  T
C1262      C1263   1.400       .  S
C1263      C1264   1.199       .  T
C1265      C1266   1.201       .  T
C1266      C1267   1.403       .  S
C1267      C1268   1.200       .  T
C1269      C1270   1.196       .  T
C1270      C1271   1.396       .  S
C1271      C1272   1.197       .  T
C1273      C1274   1.198       .  T
C1274      C1275   1.399       .  S
C1275      C1276   1.199       .  T
C1277      C1278   1.196       .  T
C1278      C1279   1.394       .  S
C1279      C1280   1.195   1_455  T
C1281      C1282   1.197       .  T
C1282      C1283   1.397       .  S
C1283      C1284   1.197       .  T
C1285      C1286   1.198       .  T
C1286      C1287   1.399       .  S
C1287      C1288   1.199       .  T
C1289      C1290   1.358       .  D
C1289      H1291   1.086       .  S
C1290      H1292   1.086       .  S
C1293      C1294   1.354       .  D
C1293      H1295   1.083       .  S
C1294      H1296   1.084       .  S
C1297      C1298   1.362       .  D
C1297      H1299   1.088       .  S
C1298      H1300   1.088       .  S
C1301      C1302   1.354       .  D
C1301      H1303   1.083       .  S
C1302      H1304   1.084       .  S
C1305      C1306   1.196       .  T
C1306      C1307   1.395       .  S
C1307      C1308   1.196       .  T
C1309      C1310   1.196       .  T
C1310      C1311   1.396       .  S
C1311      C1312   1.197       .  T
C1313      C1314   1.197       .  T
C1314      C1315   1.397       .  S
C1315      C1316   1.197       .  T
C1317      C1318   1.358       .  D
C1317      H1319   1.088       .  S
C1318      H1320   1.088       .  S
C1321      C1322   1.364       .  D
C1321      H1323   1.086       .  S
C1322      H1324   1.085       .  S
C1325      C1326   1.362       .  D
C1325      H1327   1.088       .  S
C1326      H1328   1.088       .  S
C1329      C1330   1.356       .  D
C1329      H1331   1.084       .  S
C1330      H1332   1.085       .  S
C1333      C1334   1.196       .  T
C1334      C1335   1.395       .  S
C1335      C1336   1.195       .  T
C1337      C1338   1.200       .  T
C1338      C1339   1.402       .  S
C1339      C1340   1.199       .  T
C1341      C1342   1.200       .  T
C1342      C1343   1.402       .  S
C1343      C1344   1.200       .  T
C1345      C1346   1.195       .  T
C1346      C1347   1.393       .  S
C1347      C1348   1.195       .  T
C1349      C1350   1.198       .  T
C1350      C1351   1.398       .  S
C1351      C1352   1.198       .  T
C1353      C1354   1.192       .  T
C1354      C1355   1.389       .  S
C1355      C1356   1.194       .  T
C1357      C1358   1.197       .  T
C1358      C1359   1.397   1_545  S
C1359      C1360   1.197       .  T
C1361      C1362   1.199       .  T
C1362      C1363   1.399       .  S
C1363      C1364   1.198       .  T
C1365      C1366   1.196   1_554  T
C1366      C1367   1.395       .  S
C1367      C1368   1.196       .  T
