geometry optimzed in LAMMPS
_audit_creation_date              2020-11-30 
_audit_creation_method            'lammps2cif' 
_symmetry_space_group_name_H-M    'P1' 
_symmetry_Int_Tables_number       1 
_symmetry_cell_setting            triclinic 
loop_ 
_symmetry_equiv_pos_as_xyz 
  x,y,z 
_cell_length_a                    52.5907202 
_cell_length_b                    52.63115269582552 
_cell_length_c                    52.55529153963371 
_cell_angle_alpha                 90.30098426998126 
_cell_angle_beta                  90.18517739027594 
_cell_angle_gamma                 89.73550644805903 
loop_ 
_atom_site_label 
_atom_site_type_symbol 
_atom_site_fract_x 
_atom_site_fract_y 
_atom_site_fract_z 
_atom_site_charge 
N1          N  0.48202032  0.63859195  0.01457022    -0.26600
N2          N  0.49502502  0.65670078  0.00319389    -0.34500
C3          C  0.47888940  0.67590572  0.99758255     0.01700
C4          C  0.45459950  0.66912773  0.00529839     0.07800
C5          C  0.45738648  0.64537975  0.01594288    -0.05300
H6          H  0.48410555  0.69279693  0.98721925     0.08400
H7          H  0.44241488  0.63332850  0.02305028     0.09600
Cu8        Cu  0.53318803  0.65174606  0.99237688     0.44200
Cu9        Cu  0.49651922  0.60305650  0.02227260     0.42000
Cu10       Cu  0.55488474  0.58578313  0.99273448     0.43900
N11         N  0.57007648  0.63983779  0.98238884    -0.34000
N12         N  0.57830577  0.61608520  0.98404688    -0.28300
C13         C  0.60221906  0.61459699  0.97499816    -0.04400
C14         C  0.60933191  0.63843932  0.96687122     0.07900
C15         C  0.58845530  0.65391345  0.97168559     0.01700
H16         H  0.61266070  0.59703872  0.97225204     0.09300
H17         H  0.58631378  0.67368276  0.96653562     0.08400
N18         N  0.52407600  0.56147490  0.99490106    -0.35400
N19         N  0.50329910  0.56741899  0.00769256    -0.27600
C20         C  0.48415942  0.55267615  0.99964505    -0.02900
C21         C  0.49294807  0.53700999  0.98041518     0.05700
C22         C  0.51847243  0.54289813  0.97812118     0.03800
H23         H  0.46436280  0.55675525  0.00358616     0.08900
H24         H  0.53066841  0.53748806  0.96244423     0.07800
N25         N  0.39510228  0.37264813  0.78521192    -0.26600
N26         N  0.37989908  0.35281897  0.78673200    -0.34500
C27         C  0.39425723  0.33148734  0.78688126     0.01700
C28         C  0.41966429  0.33847146  0.78569121     0.07800
C29         C  0.41936312  0.36467758  0.78453386    -0.05300
H30         H  0.38688502  0.31251429  0.78941225     0.08400
H31         H  0.43562356  0.37718617  0.78506421     0.09600
Cu32       Cu  0.34086907  0.35736164  0.79262457     0.44200
Cu33       Cu  0.38310128  0.40947422  0.79115680     0.42000
Cu34       Cu  0.32037523  0.42017850  0.81644167     0.43900
N35         N  0.30319351  0.36784600  0.79998427    -0.34000
N36         N  0.29557542  0.39050258  0.80808020    -0.28300
C37         C  0.27019976  0.39003036  0.81180428    -0.04400
C38         C  0.26151292  0.36588764  0.80600468     0.07900
C39         C  0.28294054  0.35242289  0.79857536     0.01700
H40         H  0.25917311  0.40566262  0.81951529     0.09300
H41         H  0.28391671  0.33253880  0.79335797     0.08400
N42         N  0.35118918  0.44372469  0.82419286    -0.35400
N43         N  0.37364808  0.44028949  0.81350107    -0.27600
C44         C  0.39063109  0.45570346  0.82462777    -0.02900
C45         C  0.37858108  0.46938824  0.84361517     0.05700
C46         C  0.35341686  0.46147791  0.84263598     0.03800
H47         H  0.41089126  0.45483398  0.82114692     0.08900
H48         H  0.33824783  0.46686233  0.85542992     0.07800
N49         N  0.56883741  0.87753904  0.33852435    -0.26600
N50         N  0.58827206  0.88551423  0.32495614    -0.34500
C51         C  0.60772316  0.89085693  0.34080631     0.01700
C52         C  0.59979353  0.88639127  0.36552264     0.07800
C53         C  0.57508595  0.87792449  0.36331505    -0.05300
H54         H  0.62560941  0.89901049  0.33494800     0.08400
H55         H  0.56203394  0.87394188  0.37864000     0.09600
Cu56       Cu  0.58451335  0.89272051  0.28628214     0.44200
Cu57       Cu  0.53300645  0.87347659  0.32349104     0.42000
Cu58       Cu  0.51908669  0.90433156  0.26385789     0.43900
N59         N  0.57431016  0.89974939  0.24868957    -0.34000
N60         N  0.55087876  0.90373520  0.24025510    -0.28300
C61         C  0.55173255  0.90821893  0.21501021    -0.04400
C62         C  0.57688457  0.90709907  0.20735288     0.07900
C63         C  0.59056610  0.90169224  0.22918099     0.01700
H64         H  0.53538745  0.91281653  0.20333384     0.09300
H65         H  0.61098575  0.89982780  0.23093837     0.08400
N66         N  0.49393155  0.90348597  0.29441032    -0.35400
N67         N  0.49882404  0.89044432  0.31523526    -0.27600
C68         C  0.48226342  0.89709148  0.33335797    -0.02900
C69         C  0.46602689  0.91566205  0.32403324     0.05700
C70         C  0.47387882  0.91889765  0.29890089     0.03800
H71         H  0.48446054  0.89147251  0.35300701     0.08900
H72         H  0.46721947  0.93274168  0.28538298     0.07800
N73         N  0.30380386  0.11353924  0.42998359    -0.26600
N74         N  0.28348518  0.11414058  0.44471482    -0.34500
C75         C  0.26270054  0.11689212  0.42981337     0.01700
C76         C  0.27049240  0.11766968  0.40458800     0.07800
C77         C  0.29664198  0.11558963  0.40553760    -0.05300
H78         H  0.24332760  0.11662014  0.43666394     0.08400
H79         H  0.30945832  0.11388716  0.38955167     0.09600
Cu80       Cu  0.28579978  0.10708134  0.48389865     0.44200
Cu81       Cu  0.33955386  0.10331093  0.44237019     0.42000
Cu82       Cu  0.34416440  0.07408367  0.50337134     0.43900
N83         N  0.29517644  0.09803136  0.52164304    -0.34000
N84         N  0.31665324  0.08680483  0.52864360    -0.28300
C85         C  0.31666294  0.08363169  0.55406181    -0.04400
C86         C  0.29401257  0.09302294  0.56357368     0.07900
C87         C  0.28083565  0.10193034  0.54249680     0.01700
H88         H  0.33153363  0.07406177  0.56463354     0.09300
H89         H  0.26194909  0.11015211  0.54226695     0.08400
N90         N  0.36732311  0.06419105  0.47302933    -0.35400
N91         N  0.36686729  0.07673922  0.45133051    -0.27600
C92         C  0.38144643  0.06455897  0.43426592    -0.02900
C93         C  0.39123995  0.04303962  0.44554109     0.05700
C94         C  0.38195570  0.04331156  0.47017610     0.03800
H95         H  0.38231107  0.06929585  0.41427516     0.08900
H96         H  0.38408161  0.02853594  0.48426626     0.07800
O97         O  0.56576235  0.93846254  0.74590139    -0.72300
O98         O  0.56008648  0.94445230  0.82235653    -0.73200
O99         O  0.54722220  0.97627039  0.78045331    -0.61900
O100        O  0.57854849  0.90693355  0.78851035    -0.70300
O101        O  0.61704168  0.92403940  0.79007013    -0.69800
O102        O  0.58588523  0.99287276  0.78131107    -0.61100
O103        O  0.59837892  0.96165019  0.82357444    -0.73600
O104        O  0.60465589  0.95459125  0.74796089    -0.72400
Cu105      Cu  0.56151270  0.94094578  0.78416909     1.04600
Cu106      Cu  0.60274034  0.95896095  0.78575568     1.04300
C107        C  0.58635161  0.94522076  0.73500493     0.93900
C108        C  0.57866760  0.95357239  0.83514257     0.93100
C109        C  0.56177198  0.99562799  0.77976215     0.85200
C110        C  0.60264083  0.90463733  0.79103754     0.91500
N111        N  0.66521034  0.99121457  0.11519569    -0.26600
N112        N  0.66961991  0.97445639  0.13326658    -0.34500
C113        C  0.68802591  0.98309829  0.14866396     0.01700
C114        C  0.69564767  0.00659754  0.14000674     0.07800
C115        C  0.68090747  0.01109592  0.11851090    -0.05300
H116        H  0.69435139  0.97358675  0.16577262     0.08400
H117        H  0.68124512  0.02761286  0.10638062     0.09600
Cu118      Cu  0.64698309  0.94345261  0.13939763     0.44200
Cu119      Cu  0.63684795  0.98555451  0.08844163     0.42000
Cu120      Cu  0.58872558  0.93742238  0.10469380     0.43900
N121        N  0.61545983  0.92577488  0.15369351    -0.34000
N122        N  0.59306734  0.92513011  0.14224736    -0.28300
C123        C  0.57553700  0.91739933  0.15924483    -0.04400
C124        C  0.58778677  0.91297408  0.18228210     0.07900
C125        C  0.61300882  0.91836215  0.17789060     0.01700
H126        H  0.55535578  0.91613206  0.15544743     0.09300
H127        H  0.62821247  0.91886998  0.19179719     0.08400
N128        N  0.59442613  0.95200860  0.06817943    -0.35400
N129        N  0.61113389  0.96997680  0.06295147    -0.27600
C130        C  0.61081558  0.97454289  0.03785797    -0.02900
C131        C  0.59341155  0.95852437  0.02646897     0.05700
C132        C  0.58326451  0.94450617  0.04626370     0.03800
H133        H  0.62320791  0.98784997  0.02841931     0.08900
H134        H  0.56899233  0.92983149  0.04485301     0.07800
N135        N  0.52865709  0.21951357  0.80312572    -0.26600
N136        N  0.50380122  0.21893687  0.79970415    -0.34500
C137        C  0.49660201  0.19446234  0.79712887     0.01700
C138        C  0.51808902  0.17905682  0.79930275     0.07800
C139        C  0.53798179  0.19582529  0.80273234    -0.05300
H140        H  0.47728893  0.18837810  0.79357980     0.08400
H141        H  0.55803535  0.19138236  0.80389750     0.09600
Cu142      Cu  0.48253664  0.25244075  0.79746200     0.44200
Cu143      Cu  0.54971267  0.25196214  0.80737599     0.42000
Cu144      Cu  0.52126766  0.31223998  0.80438246     0.43900
N145        N  0.46843241  0.28949003  0.79443651    -0.34000
N146        N  0.48229392  0.31040667  0.79643370    -0.28300
C147        C  0.46706304  0.33070489  0.79308710    -0.04400
C148        C  0.44247866  0.32236200  0.78896498     0.07900
C149        C  0.44402122  0.29613563  0.78998185     0.01700
H150        H  0.47342572  0.35020271  0.79409564     0.09300
H151        H  0.42853824  0.28282859  0.78777733     0.08400
N152        N  0.56011736  0.30763127  0.81163111    -0.35400
N153        N  0.57023451  0.28466250  0.81225340    -0.27600
C154        C  0.59536485  0.28636048  0.81603829    -0.02900
C155        C  0.60170778  0.31170878  0.81812633     0.05700
C156        C  0.57882449  0.32480679  0.81525261     0.03800
H157        H  0.60815241  0.27022327  0.81699045     0.08900
H158        H  0.57613019  0.34518893  0.81497591     0.07800
O159        O  0.95340206  0.90886341  0.50613173    -0.72300
O160        O  0.02010780  0.92115646  0.54203420    -0.73200
O161        O  0.99103036  0.87758157  0.52952988    -0.61900
O162        O  0.98311886  0.95259966  0.51810483    -0.70300
O163        O  0.96242643  0.95632007  0.55449409    -0.69800
O164        O  0.97164246  0.88099116  0.56672309    -0.61100
O165        O  0.99936777  0.92535996  0.57848500    -0.73600
O166        O  0.93390059  0.91190202  0.54330674    -0.72400
Cu167      Cu  0.98757526  0.91488779  0.52263143     1.04600
Cu168      Cu  0.96607742  0.91874053  0.56196434     1.04300
C169        C  0.93300898  0.90825819  0.51932297     0.93900
C170        C  0.02011396  0.92547360  0.56601477     0.93100
C171        C  0.98317690  0.86741514  0.55006660     0.85200
C172        C  0.97178576  0.96652759  0.53453996     0.91500
N173        N  0.94486432  0.23573790  0.62048843    -0.26600
N174        N  0.96133667  0.25345394  0.62701966    -0.34500
C175        C  0.95348410  0.26477695  0.64857087     0.01700
C176        C  0.93105705  0.25339254  0.65618796     0.07800
C177        C  0.92615237  0.23508809  0.63781121    -0.05300
H178        H  0.96254323  0.28120101  0.65701155     0.08400
H179        H  0.90979714  0.22274410  0.63664019     0.09600
Cu180      Cu  0.99062127  0.26442974  0.60354690     0.44200
Cu181      Cu  0.94813503  0.21495191  0.58730554     0.42000
Cu182      Cu  0.99346884  0.23544227  0.54027734     0.43900
N183        N  0.00618271  0.28194835  0.57231162    -0.34000
N184        N  0.00516073  0.27289106  0.54878451    -0.28300
C185        C  0.01036828  0.29208067  0.53264585    -0.04400
C186        C  0.01515932  0.31393505  0.54684880     0.07900
C187        C  0.01253937  0.30662421  0.57183532     0.01700
H188        H  0.00938769  0.29060754  0.51213072     0.09300
H189        H  0.01253559  0.31897906  0.58835736     0.08400
N190        N  0.97700012  0.19892909  0.54024533    -0.35400
N191        N  0.95923220  0.19277943  0.55682988    -0.27600
C192        C  0.95244318  0.16850408  0.55326863    -0.02900
C193        C  0.96660146  0.15834437  0.53358558     0.05700
C194        C  0.98227591  0.17814118  0.52587634     0.03800
H195        H  0.93947757  0.15839615  0.56548948     0.08900
H196        H  0.99692243  0.17722972  0.51148662     0.07800
N197        N  0.20690318  0.02209524  0.66204880    -0.26600
N198        N  0.20151768  0.03992568  0.64530936    -0.34500
C199        C  0.18126879  0.03280246  0.63149526     0.01700
C200        C  0.17365412  0.00906119  0.63969308     0.06000
C201        C  0.19018154  0.00303741  0.65938358    -0.05300
H202        H  0.17323937  0.04395609  0.61623762     0.08400
H203        H  0.19061519  0.98572474  0.67038663     0.09600
Cu204      Cu  0.22519982  0.07001517  0.63810573     0.44200
Cu205      Cu  0.23749808  0.02476485  0.68652640     0.42000
Cu206      Cu  0.28695041  0.06873389  0.66835457     0.43900
N207        N  0.25755516  0.08360113  0.62118104    -0.34000
N208        N  0.28070116  0.08097201  0.63075867    -0.28300
C209        C  0.29764584  0.08514267  0.61197872    -0.04400
C210        C  0.28433392  0.09085702  0.58980390     0.07900
C211        C  0.25905469  0.08985723  0.59651105     0.01700
H212        H  0.31801021  0.08289530  0.61395649     0.09300
H213        H  0.24287942  0.09098345  0.58378077     0.08400
N214        N  0.28349030  0.05362541  0.70519846    -0.35400
N215        N  0.26585796  0.03676402  0.71091506    -0.27600
C216        C  0.26750700  0.03093653  0.73568215    -0.02900
C217        C  0.28688817  0.04492769  0.74652984     0.05700
C218        C  0.29671703  0.05916180  0.72661012     0.03800
H219        H  0.25465269  0.01827544  0.74538755     0.08900
H220        H  0.31207813  0.07272052  0.72767127     0.07800
O221        O  0.32347558  0.02540477  0.99336980    -0.72300
O222        O  0.29043217  0.09404016  0.98497324    -0.73200
O223        O  0.30300445  0.06244798  0.02755921    -0.61900
O224        O  0.31069397  0.05699638  0.95099202    -0.70300
O225        O  0.27296227  0.03871234  0.94867345    -0.69800
O226        O  0.26510519  0.04456421  0.02434954    -0.61100
O227        O  0.25272207  0.07562754  0.98223447    -0.73600
O228        O  0.28539991  0.00762926  0.99105129    -0.72400
Cu229      Cu  0.30826463  0.06036742  0.98938174     1.04600
Cu230      Cu  0.26781182  0.04100074  0.98653035     1.04300
C231        C  0.30947144  0.00562676  0.99367585     0.93900
C232        C  0.26638387  0.09560995  0.98163952     0.93100
C233        C  0.28268920  0.05431297  0.03804112     0.85200
C234        C  0.29276714  0.04725096  0.93764814     0.91500
O235        O  0.92052407  0.11433740  0.24220671    -0.72300
O236        O  0.85071153  0.10581076  0.21504163    -0.73200
O237        O  0.88119936  0.14824972  0.22647331    -0.61900
O238        O  0.88929155  0.07232975  0.23077959    -0.70300
O239        O  0.87367136  0.07304953  0.26985570    -0.69800
O240        O  0.86677138  0.14960625  0.26603504    -0.61100
O241        O  0.83489324  0.10674170  0.25408260    -0.73600
O242        O  0.90625895  0.11474996  0.28175279    -0.72400
Cu243      Cu  0.88598357  0.11031244  0.22737564     1.04600
Cu244      Cu  0.86988863  0.11125194  0.26938713     1.04300
C245        C  0.92484834  0.11492588  0.26608698     0.93900
C246        C  0.83186504  0.10382411  0.23008440     0.93100
C247        C  0.87239203  0.16093407  0.24532122     0.85200
C248        C  0.88226477  0.06055866  0.25075488     0.91500
O249        O  0.87638161  0.34045672  0.85768194    -0.72300
O250        O  0.80045849  0.33454977  0.85405011    -0.73200
O251        O  0.84132510  0.31947149  0.82255201    -0.61900
O252        O  0.83556548  0.35536714  0.88933751    -0.70300
O253        O  0.83416681  0.39265016  0.86989446    -0.69800
O254        O  0.83898142  0.35623099  0.80244566    -0.61100
O255        O  0.79797522  0.37166040  0.83467974    -0.73600
O256        O  0.87463199  0.37730611  0.83764336    -0.72400
Cu257      Cu  0.83843804  0.33624565  0.85657725     1.04600
Cu258      Cu  0.83626842  0.37578285  0.83544459     1.04300
C259        C  0.88765328  0.35968980  0.84826497     0.93900
C260        C  0.78705689  0.35200305  0.84374661     0.93100
C261        C  0.84143689  0.33205092  0.80184494     0.85200
C262        C  0.83454623  0.37959263  0.89033290     0.91500
N263        N  0.84768991  0.42049263  0.11348117    -0.26600
N264        N  0.84225087  0.44498028  0.11303442    -0.34500
C265        C  0.84077657  0.45257649  0.08860436     0.01700
C266        C  0.84550118  0.43169868  0.07295076     0.07800
C267        C  0.84989061  0.41180112  0.08956335    -0.05300
H268        H  0.83664161  0.47183752  0.08284194     0.08400
H269        H  0.85366826  0.39215843  0.08465360     0.09600
Cu270      Cu  0.83626111  0.46552372  0.14640208     0.44200
Cu271      Cu  0.85039472  0.39954876  0.14643800     0.42000
Cu272      Cu  0.83562616  0.42796583  0.20667275     0.43900
N273        N  0.82915817  0.48050825  0.18242604    -0.34000
N274        N  0.82799919  0.46720966  0.20375516    -0.28300
C275        C  0.82179140  0.48314273  0.22296001    -0.04400
C276        C  0.81924245  0.50752841  0.21334444     0.07900
C277        C  0.82414364  0.50511004  0.18764255     0.01700
H278        H  0.81962275  0.47744198  0.24257727     0.09300
H279        H  0.82369741  0.52008219  0.17361434     0.08400
N280        N  0.84537779  0.38929471  0.20261661    -0.35400
N281        N  0.85083801  0.37954198  0.18007510    -0.27600
C282        C  0.85640336  0.35479710  0.18248813    -0.02900
C283        C  0.85448862  0.34810012  0.20784599     0.05700
C284        C  0.84744304  0.37063506  0.22015066     0.03800
H285        H  0.86119246  0.34245863  0.16666932     0.08900
H286        H  0.84442700  0.37341506  0.24030819     0.07800
N287        N  0.15058346  0.11739350  0.29492161    -0.26600
N288        N  0.15106928  0.11961346  0.31996681    -0.34500
C289        C  0.12707195  0.12291303  0.32840834     0.01700
C290        C  0.11090399  0.12319217  0.30751522     0.07800
C291        C  0.12650480  0.11942817  0.28670397    -0.05300
H292        H  0.12180677  0.12499923  0.34819399     0.08400
H293        H  0.12072946  0.11750239  0.26701752     0.09600
Cu294      Cu  0.18491353  0.11793149  0.34045250     0.44200
Cu295      Cu  0.18219758  0.11028325  0.27274234     0.42000
Cu296      Cu  0.24275313  0.10296750  0.30223014     0.43900
N297        N  0.22174050  0.11616754  0.35494268    -0.34000
N298        N  0.24234021  0.11119476  0.34129499    -0.28300
C299        C  0.26273243  0.11162365  0.35682458    -0.04400
C300        C  0.25464138  0.11689856  0.38136238     0.07900
C301        C  0.22855671  0.11965393  0.37944953     0.01700
H302        H  0.28200800  0.10775661  0.35074806     0.09300
H303        H  0.21541708  0.12364873  0.39476942     0.08400
N304        N  0.23708958  0.09705042  0.26319685    -0.35400
N305        N  0.21454634  0.10068203  0.25262959    -0.27600
C306        C  0.21619737  0.09673304  0.22744681    -0.02900
C307        C  0.24099395  0.09019890  0.22161807     0.05700
C308        C  0.25376153  0.09030575  0.24480689     0.03800
H309        H  0.20038436  0.09830620  0.21432694     0.08900
H310        H  0.27372548  0.08635585  0.24796104     0.07800
N311        N  0.16009996  0.26989037  0.87477683    -0.26600
N312        N  0.18034390  0.26684192  0.86034607    -0.34500
C313        C  0.19330470  0.24627183  0.86815495     0.01700
C314        C  0.18047577  0.23569013  0.88849590     0.07800
C315        C  0.15952040  0.25131657  0.89224706    -0.05300
H316        H  0.21168396  0.24062769  0.86081139     0.08400
H317        H  0.14546399  0.24989532  0.90715146     0.09600
Cu318      Cu  0.19147335  0.29403577  0.83458494     0.44200
Cu319      Cu  0.13633106  0.30080003  0.87036032     0.42000
Cu320      Cu  0.15730228  0.35492692  0.83212849     0.43900
N321        N  0.20655586  0.32719557  0.82048318    -0.34000
N322        N  0.19549678  0.34983599  0.82117616    -0.28300
C323        C  0.21310018  0.36748542  0.81523484    -0.04400
C324        C  0.23603065  0.35513006  0.81040792     0.07900
C325        C  0.23098349  0.32970730  0.81377929     0.01700
H326        H  0.20971367  0.38777154  0.81528050     0.09300
H327        H  0.24458289  0.31421971  0.81333721     0.08400
N328        N  0.11991737  0.35031990  0.84556867    -0.35400
N329        N  0.11329580  0.33075195  0.85974387    -0.27600
C330        C  0.08847584  0.33227421  0.86510858    -0.02900
C331        C  0.07842591  0.35376304  0.85386335     0.05700
C332        C  0.09900055  0.36485363  0.84152951     0.03800
H333        H  0.07828722  0.31812811  0.87586265     0.08900
H334        H  0.09885922  0.38214049  0.83052062     0.07800
O335        O  0.02476067  0.70372338  0.97012228    -0.72300
O336        O  0.03498898  0.67388843  0.90140577    -0.73200
O337        O  0.99187163  0.68672464  0.93104509    -0.61900
O338        O  0.06827334  0.69035002  0.94079298    -0.70300
O339        O  0.06818165  0.65147623  0.95667768    -0.69800
O340        O  0.99194568  0.64844967  0.94842885    -0.61100
O341        O  0.03459037  0.63502373  0.91728257    -0.73600
O342        O  0.02526408  0.66535266  0.98726162    -0.72400
Cu343      Cu  0.03005840  0.68997622  0.93527589     1.04600
Cu344      Cu  0.03007012  0.64870901  0.95298285     1.04300
C345        C  0.02269340  0.68943307  0.98952846     0.93900
C346        C  0.03612274  0.64990163  0.89817239     0.93100
C347        C  0.97980276  0.66710937  0.93863068     0.85200
C348        C  0.08035580  0.67136491  0.95013883     0.91500
N349        N  0.92993243  0.78006165  0.18254926    -0.26600
N350        N  0.91250060  0.76312887  0.17648441    -0.34500
C351        C  0.92025602  0.74953144  0.15637632     0.01700
C352        C  0.94378847  0.75832833  0.14908055     0.07800
C353        C  0.94944923  0.77780712  0.16609856    -0.05300
H354        H  0.90944778  0.73431897  0.14769918     0.08400
H355        H  0.96597830  0.78996030  0.16599544     0.09600
Cu356      Cu  0.87967205  0.75792055  0.19643852     0.44200
Cu357      Cu  0.92364680  0.80567762  0.21205092     0.42000
Cu358      Cu  0.86849498  0.79102879  0.25393014     0.43900
N359        N  0.85721750  0.74358407  0.22446293    -0.34000
N360        N  0.85441893  0.75418225  0.24710916    -0.28300
C361        C  0.84356464  0.73692360  0.26264302    -0.04400
C362        C  0.83942020  0.71468377  0.24871963     0.07900
C363        C  0.84821231  0.71984503  0.22466755     0.01700
H364        H  0.84001755  0.73989183  0.28270231     0.09300
H365        H  0.84997114  0.70661621  0.20894168     0.08400
N366        N  0.88577486  0.82696342  0.25061177    -0.35400
N367        N  0.90619358  0.83139808  0.23661601    -0.27600
C368        C  0.91158759  0.85631681  0.23753309    -0.02900
C369        C  0.89375708  0.86848198  0.25258605     0.05700
C370        C  0.87751783  0.84930834  0.26040258     0.03800
H371        H  0.92633588  0.86521277  0.22644004     0.08900
H372        H  0.86047488  0.85158453  0.27167256     0.07800
N373        N  0.34414348  0.78261289  0.97293795    -0.26600
N374        N  0.36836728  0.78297236  0.97940237    -0.34500
C375        C  0.37603337  0.80729316  0.98121816     0.01700
C376        C  0.35553580  0.82293533  0.97532249     0.07800
C377        C  0.33560845  0.80650190  0.97042346    -0.05300
H378        H  0.39492436  0.81313294  0.98688158     0.08400
H379        H  0.31599733  0.81143401  0.96655431     0.09600
Cu380      Cu  0.38792604  0.74954529  0.98652022     0.44200
Cu381      Cu  0.32357009  0.74964356  0.97026233     0.42000
Cu382      Cu  0.34984912  0.68932956  0.98894573     0.43900
N383        N  0.40274283  0.71362600  0.99304797    -0.34000
N384        N  0.38957288  0.69227745  0.99488308    -0.28300
C385        C  0.40602395  0.67316882  0.99991475    -0.04400
C386        C  0.43049949  0.68296070  0.00090530     0.07900
C387        C  0.42762201  0.70857725  0.99639133     0.01700
H388        H  0.40064583  0.65348702  0.00210160     0.09300
H389        H  0.44252697  0.72266464  0.99576395     0.08400
N390        N  0.31121339  0.69434781  0.97875199    -0.35400
N391        N  0.30273864  0.71678296  0.97126403    -0.27600
C392        C  0.27809873  0.71521775  0.96506881    -0.02900
C393        C  0.27003416  0.69064573  0.96882451     0.05700
C394        C  0.29157906  0.67775345  0.97763419     0.03800
H395        H  0.26671038  0.73109552  0.95856461     0.08900
H396        H  0.29296021  0.65782208  0.98238995     0.07800
N397        N  0.06336840  0.61335078  0.67645939    -0.26600
N398        N  0.06225048  0.58833734  0.67735311    -0.34500
C399        C  0.06530757  0.58092549  0.70166610     0.01700
C400        C  0.06865440  0.60241802  0.71674180     0.07800
C401        C  0.06711437  0.62257706  0.69997692    -0.05300
H402        H  0.06403951  0.56145600  0.70801450     0.08400
H403        H  0.06670038  0.64259917  0.70465144     0.09600
Cu404      Cu  0.05403304  0.56664704  0.64532135     0.44200
Cu405      Cu  0.05567111  0.63422571  0.64434644     0.42000
Cu406      Cu  0.03647735  0.60332505  0.58715597     0.43900
N407        N  0.04686125  0.55070399  0.60981354    -0.34000
N408        N  0.04114440  0.56374940  0.58904146    -0.28300
C409        C  0.03908374  0.54739073  0.56939741    -0.04400
C410        C  0.04354039  0.52298147  0.57817869     0.07900
C411        C  0.04830506  0.52579320  0.60389338     0.01700
H412        H  0.03461661  0.55291263  0.55009037     0.09300
H413        H  0.05293433  0.51090569  0.61727621     0.08400
N414        N  0.03480302  0.64288904  0.59175806    -0.35400
N415        N  0.04248369  0.65371510  0.61312842    -0.27600
C416        C  0.03942486  0.67893123  0.61154915    -0.02900
C417        C  0.02924768  0.68474349  0.58798061     0.05700
C418        C  0.02658740  0.66128065  0.57580916     0.03800
H419        H  0.04390485  0.69206556  0.62680130     0.08900
H420        H  0.01956269  0.65780755  0.55676025     0.07800
N421        N  0.71378729  0.89845741  0.47648779    -0.26600
N422        N  0.71338372  0.90411007  0.45204395    -0.34500
C423        C  0.73743171  0.90518355  0.44340544     0.01700
C424        C  0.75356664  0.89971330  0.46349753     0.07800
C425        C  0.73797065  0.89548442  0.48410433    -0.05300
H426        H  0.74268865  0.90888278  0.42389717     0.08400
H427        H  0.74379140  0.89082698  0.50329603     0.09600
Cu428      Cu  0.67962108  0.90742078  0.43213776     0.44200
Cu429      Cu  0.68152882  0.89639922  0.49852711     0.42000
Cu430      Cu  0.62009907  0.90229756  0.46961594     0.43900
N431        N  0.64386547  0.90172177  0.41676294    -0.34000
N432        N  0.62265220  0.89895840  0.42997467    -0.28300
C433        C  0.60368379  0.89312524  0.41372499    -0.04400
C434        C  0.61345923  0.89229671  0.38927961     0.07900
C435        C  0.63890751  0.89793604  0.39192806     0.01700
H436        H  0.58424635  0.88960672  0.41933527     0.09300
H437        H  0.65301324  0.89853038  0.37700265     0.08400
N438        N  0.62583217  0.90525655  0.50893867    -0.35400
N439        N  0.64868990  0.90237159  0.51903192    -0.27600
C440        C  0.64759929  0.90695531  0.54409752    -0.02900
C441        C  0.62285214  0.91314210  0.55049069     0.05700
C442        C  0.60943285  0.91178345  0.52764401     0.03800
H443        H  0.66396838  0.90675526  0.55662024     0.08900
H444        H  0.58962382  0.91650644  0.52460657     0.07800
N445        N  0.69784228  0.70527097  0.85111733    -0.26600
N446        N  0.67373616  0.70021681  0.85554185    -0.34500
C447        C  0.65900634  0.71606092  0.84198011     0.01700
C448        C  0.67454032  0.73216838  0.82832560     0.07800
C449        C  0.69913442  0.72467490  0.83460819    -0.05300
H450        H  0.63865280  0.71778767  0.84441068     0.08400
H451        H  0.71658390  0.73411263  0.82942650     0.09600
Cu452      Cu  0.66245015  0.67738260  0.88500251     0.44200
Cu453      Cu  0.72677706  0.68879613  0.87240045     0.42000
Cu454      Cu  0.70927437  0.64797758  0.92678883     0.43900
N455        N  0.65339405  0.65940276  0.91840832    -0.34000
N456        N  0.66972745  0.64755887  0.93349966    -0.28300
C457        C  0.65664702  0.63781883  0.95328541    -0.04400
C458        C  0.63118947  0.64457786  0.95056799     0.07900
C459        C  0.62996270  0.65821815  0.92833037     0.01700
H460        H  0.66507995  0.62727535  0.96880637     0.09300
H461        H  0.61314127  0.66646074  0.91972873     0.08400
N462        N  0.74693774  0.65670201  0.91624797    -0.35400
N463        N  0.75263023  0.67196695  0.89713681    -0.27600
C464        C  0.77788775  0.67565878  0.89666212    -0.02900
C465        C  0.78897207  0.66190308  0.91608379     0.05700
C466        C  0.76879456  0.65002283  0.92814658     0.03800
H467        H  0.78750048  0.68786061  0.88329937     0.08900
H468        H  0.76982652  0.63836678  0.94500871     0.07800
N469        N  0.03893665  0.47348656  0.53007514    -0.26600
N470        N  0.03897306  0.45909407  0.55061273    -0.34500
C471        C  0.04187949  0.47431572  0.57120387     0.01700
C472        C  0.04329128  0.49934373  0.56296175     0.07800
C473        C  0.04144617  0.49794268  0.53684227    -0.05300
H474        H  0.04143380  0.46785615  0.59070362     0.08400
H475        H  0.04036237  0.51367646  0.52371020     0.09600
Cu476      Cu  0.03131830  0.41995981  0.54847855     0.44200
Cu477      Cu  0.02867967  0.46126185  0.49439406     0.42000
Cu478      Cu  0.99747767  0.40187375  0.48994746     0.43900
N479        N  0.02219042  0.38239605  0.53815902    -0.34000
N480        N  0.01079957  0.37597371  0.51656237    -0.28300
C481        C  0.00781499  0.35057326  0.51573943    -0.04400
C482        C  0.01744922  0.34042055  0.53798163     0.07900
C483        C  0.02631423  0.36113907  0.55178844     0.01700
H484        H  0.99811067  0.34042228  0.50064576     0.09300
H485        H  0.03465414  0.36082834  0.57062734     0.08400
N486        N  0.98760676  0.43275447  0.46755661    -0.35400
N487        N  0.00077441  0.45404262  0.46806454    -0.27600
C488        C  0.98888592  0.47161841  0.45392706    -0.02900
C489        C  0.96689729  0.46107766  0.44428467     0.05700
C490        C  0.96668038  0.43630926  0.45316434     0.03800
H491        H  0.99449902  0.49134061  0.45285714     0.08900
H492        H  0.95183062  0.42238786  0.45049710     0.07800
N493        N  0.80105824  0.55717142  0.25846557    -0.26600
N494        N  0.81064420  0.57133853  0.24018868    -0.34500
C495        C  0.81768019  0.55599240  0.22075807     0.01700
C496        C  0.81271292  0.53100892  0.22749314     0.07800
C497        C  0.80222447  0.53256682  0.25151348    -0.05300
H498        H  0.82705302  0.56237258  0.20366489     0.08400
H499        H  0.79687716  0.51688812  0.26357473     0.09600
Cu500      Cu  0.81684844  0.61039076  0.24518489     0.44200
Cu501      Cu  0.79213658  0.57103568  0.29418079     0.42000
Cu502      Cu  0.82076968  0.63070492  0.31130254     0.43900
N503        N  0.82268748  0.64806607  0.25701733    -0.34000
N504        N  0.82372960  0.65557482  0.28107053    -0.28300
C505        C  0.82874614  0.68067376  0.28202890    -0.04400
C506        C  0.83112257  0.68939322  0.25738212     0.07900
C507        C  0.82712839  0.66820991  0.24207861     0.01700
H508        H  0.83161143  0.69145707  0.29937936     0.09300
H509        H  0.82816707  0.66730302  0.22154668     0.08400
N510        N  0.81914008  0.59967739  0.33529855    -0.35400
N511        N  0.80576346  0.57918171  0.33003507    -0.27600
C512        C  0.81246024  0.56060285  0.34610582    -0.02900
C513        C  0.83204537  0.56922154  0.36164766     0.05700
C514        C  0.83538967  0.59438141  0.35438673     0.03800
H515        H  0.80623574  0.54140847  0.34373466     0.08900
H516        H  0.85074565  0.60673486  0.35969842     0.07800
C517        C  0.90238218  0.48760458  0.42538945    -0.13700
C518        C  0.90931893  0.50464648  0.40626457     0.16700
C519        C  0.93493194  0.50658143  0.39904037     0.03000
C520        C  0.95338855  0.49194051  0.41144387    -0.12200
C521        C  0.94659740  0.47512405  0.43090046    -0.03200
C522        C  0.92081628  0.47303147  0.43796133     0.02200
C523        C  0.88965104  0.52111932  0.39490517     0.09100
N524        N  0.94231076  0.52302222  0.37884507     0.65400
H525        H  0.97310090  0.49363943  0.40580956     0.18300
N526        N  0.91334121  0.45795836  0.45921006     0.75900
H527        H  0.88270889  0.48643661  0.43128549     0.09900
C528        C  0.87093475  0.51092491  0.37892274     0.03600
C529        C  0.85175450  0.52659712  0.36922645    -0.05200
C530        C  0.85080284  0.55277831  0.37528829    -0.23600
C531        C  0.86937595  0.56279205  0.39211027     0.12800
C532        C  0.88881502  0.54696085  0.40142654    -0.12700
N533        N  0.87171292  0.48475947  0.37150647     0.64500
H534        H  0.83858094  0.51824051  0.35639217     0.12300
N535        N  0.86846789  0.58865313  0.40067181     0.61100
H536        H  0.90280047  0.55460351  0.41428639     0.08500
O537        O  0.91941091  0.46485091  0.48144576    -0.40400
O538        O  0.89746229  0.44029293  0.45616567    -0.39500
O539        O  0.95308976  0.54383818  0.38381254    -0.39500
O540        O  0.94038356  0.51559296  0.35605636    -0.37200
O541        O  0.84911480  0.59686155  0.41230267    -0.38100
O542        O  0.88803812  0.60237308  0.39933392    -0.34300
O543        O  0.85572849  0.46941093  0.38041795    -0.35700
O544        O  0.88658718  0.47758819  0.35406992    -0.40000
C545        C  0.20423250  0.66091571  0.97599228    -0.13700
C546        C  0.19115651  0.67230636  0.95554957     0.16700
C547        C  0.20503186  0.68698942  0.93809744     0.03000
C548        C  0.23086801  0.69172390  0.94241601    -0.12200
C549        C  0.24369581  0.68167732  0.96362489    -0.03200
C550        C  0.23033536  0.66544622  0.98014488     0.02200
C551        C  0.16275755  0.67156272  0.95429416     0.09100
N552        N  0.19301809  0.69739079  0.91595645     0.65400
H553        H  0.24098760  0.70359991  0.92910050     0.18300
N554        N  0.24230699  0.65526817  0.00235917     0.75900
H555        H  0.19380608  0.64978215  0.98970248     0.09900
C556        C  0.14915616  0.64855487  0.95383534     0.03600
C557        C  0.12241003  0.64891188  0.95330331    -0.05200
C558        C  0.10865390  0.67195037  0.95282312    -0.23600
C559        C  0.12236740  0.69498579  0.95382473     0.12800
C560        C  0.14905692  0.69456692  0.95446954    -0.12700
N561        N  0.16225231  0.62471282  0.95266133     0.64500
H562        H  0.11239334  0.63099745  0.95231651     0.12300
N563        N  0.10953296  0.71896116  0.95531085     0.61100
H564        H  0.15919393  0.71241568  0.95562297     0.08500
O565        O  0.24377355  0.63152171  0.00526206    -0.40400
O566        O  0.24846208  0.66986128  0.02046724    -0.39500
O567        O  0.19521156  0.72070863  0.91096987    -0.39500
O568        O  0.18198826  0.68290056  0.90025739    -0.37200
O569        O  0.09859969  0.72546390  0.97568869    -0.38100
O570        O  0.11222960  0.73501482  0.93778636    -0.34300
O571        O  0.15917299  0.60852712  0.96999406    -0.35700
O572        O  0.17482558  0.61881201  0.93307132    -0.40000
C573        C  0.99683245  0.73899041  0.10375988    -0.13700
C574        C  0.98264081  0.73164993  0.08234440     0.16700
C575        C  0.95587865  0.73335579  0.08288553     0.03000
C576        C  0.94390039  0.74278906  0.10465739    -0.12200
C577        C  0.95793498  0.74974367  0.12634720    -0.03200
C578        C  0.98470870  0.74775249  0.12588146     0.02200
C579        C  0.99590580  0.72259722  0.05930683     0.09100
N580        N  0.94061083  0.72492154  0.06180412     0.65400
H581        H  0.92334444  0.74423262  0.10475121     0.18300
N582        N  0.99969435  0.75309497  0.14802965     0.75900
H583        H  0.01738460  0.73743158  0.10341416     0.09900
C584        C  0.99397368  0.73600913  0.03623530     0.03600
C585        C  0.00365896  0.72506948  0.01397382    -0.05200
C586        C  0.01555648  0.70108134  0.01421001    -0.23600
C587        C  0.01836618  0.68825170  0.03758977     0.12800
C588        C  0.00848468  0.69907200  0.05988043    -0.12700
N589        N  0.98186668  0.76049212  0.03508058     0.64500
H590        H  0.00136583  0.73526992  0.99626149     0.12300
N591        N  0.03110132  0.66426408  0.03904035     0.61100
H592        H  0.01000035  0.68874793  0.07760907     0.08500
O593        O  0.01809751  0.76832791  0.14668145    -0.40400
O594        O  0.99693205  0.73987850  0.16779252    -0.39500
O595        O  0.94401773  0.70304355  0.05242336    -0.39500
O596        O  0.92174349  0.73797891  0.05460879    -0.37200
O597        O  0.05506433  0.66346540  0.04008645    -0.38100
O598        O  0.01847321  0.64429296  0.04270052    -0.34300
O599        O  0.98736855  0.77749314  0.05118507    -0.35700
O600        O  0.96719382  0.76585869  0.01680223    -0.40000
C601        C  0.91132750  0.67804990  0.91684310    -0.13700
C602        C  0.89749526  0.66578779  0.93600969     0.16700
C603        C  0.91099309  0.65343303  0.95565396     0.03000
C604        C  0.93772105  0.65361261  0.95587575    -0.12200
C605        C  0.95154140  0.66620345  0.93688951    -0.03200
C606        C  0.93801414  0.67832479  0.91711173     0.02200
C607        C  0.86913638  0.66494253  0.93414189     0.09100
N608        N  0.89781124  0.64145214  0.97603345     0.65400
H609        H  0.94769847  0.64441902  0.97139049     0.18300
N610        N  0.95109319  0.68930126  0.89612576     0.75900
H611        H  0.90133826  0.68687540  0.90112155     0.09900
C612        C  0.85469984  0.68738691  0.93091160     0.03600
C613        C  0.82868453  0.68591517  0.92510214    -0.05200
C614        C  0.81628488  0.66239686  0.92338444    -0.23600
C615        C  0.83040414  0.63998581  0.92769296     0.12800
C616        C  0.85663431  0.64138695  0.93281162    -0.12700
N617        N  0.86615100  0.71182603  0.93400822     0.64500
H618        H  0.81797917  0.70331784  0.92231288     0.12300
N619        N  0.81881865  0.61562769  0.92492280     0.61100
H620        H  0.86746660  0.62394426  0.93463513     0.08500
O621        O  0.95142989  0.71311689  0.89354836    -0.40400
O622        O  0.95821124  0.67520781  0.87799067    -0.39500
O623        O  0.89843238  0.61758314  0.97809627    -0.39500
O624        O  0.88891216  0.65479646  0.99395359    -0.37200
O625        O  0.81660972  0.60578240  0.90308689    -0.38100
O626        O  0.81417565  0.60250810  0.94436968    -0.34300
O627        O  0.86481858  0.72793173  0.91634494    -0.35700
O628        O  0.87507528  0.71830803  0.95538686    -0.40000
C629        C  0.03896390  0.64431380  0.82617779    -0.13700
C630        C  0.05077989  0.62064441  0.82302083     0.16700
C631        C  0.05632972  0.60574168  0.84459201     0.03000
C632        C  0.05020326  0.61508493  0.86891117    -0.12200
C633        C  0.03969254  0.63952287  0.87215092    -0.03200
C634        C  0.03375264  0.65404696  0.85031370     0.02200
C635        C  0.05805660  0.61304850  0.79689342     0.09100
N636        N  0.06952344  0.58196721  0.84227604     0.65400
H637        H  0.05507736  0.60378087  0.88540414     0.18300
N638        N  0.02272225  0.67888092  0.85209992     0.75900
H639        H  0.03443646  0.65575652  0.80966085     0.09900
C640        C  0.04811552  0.59132487  0.78464422     0.03600
C641        C  0.05368486  0.58693229  0.75887282    -0.05200
C642        C  0.06827373  0.60429816  0.74490648    -0.23600
C643        C  0.07932642  0.62520488  0.75772852     0.12800
C644        C  0.07406238  0.62933080  0.78343135    -0.12700
N645        N  0.03081321  0.57475295  0.79738852     0.64500
H646        H  0.04481053  0.57099736  0.74929951     0.12300
N647        N  0.09578164  0.64256942  0.74496153     0.61100
H648        H  0.08218987  0.64573250  0.79294042     0.08500
O649        O  0.00013242  0.68225551  0.84467042    -0.40400
O650        O  0.03712884  0.69786654  0.85445924    -0.39500
O651        O  0.09077196  0.58097208  0.83120546    -0.39500
O652        O  0.06165312  0.56273746  0.85408856    -0.37200
O653        O  0.09192973  0.66620710  0.74676121    -0.38100
O654        O  0.11577804  0.63449944  0.73438408    -0.34300
O655        O  0.01090009  0.58365457  0.80747294    -0.35700
O656        O  0.03369469  0.55097923  0.79574982    -0.40000
C657        C  0.95775233  0.34315267  0.85777452    -0.13700
C658        C  0.96937242  0.36696344  0.85533574     0.16700
C659        C  0.95405511  0.38833373  0.84995006     0.03000
C660        C  0.92761038  0.38553821  0.84708941    -0.12200
C661        C  0.91588416  0.36172047  0.85001330    -0.03200
C662        C  0.93140503  0.34036185  0.85533720     0.02200
C663        C  0.99764200  0.36839618  0.85691427     0.09100
N664        N  0.96495621  0.41311227  0.84838042     0.65400
H665        H  0.91614243  0.40225169  0.84334985     0.18300
N666        N  0.92088955  0.31548555  0.85759676     0.75900
H667        H  0.96931148  0.32641775  0.86115522     0.09900
C668        C  0.01080402  0.35797522  0.87781999     0.03600
C669        C  0.03715784  0.35456588  0.87669425    -0.05200
C670        C  0.05113256  0.36143892  0.85504705    -0.23600
C671        C  0.03821091  0.37347110  0.83475729     0.12800
C672        C  0.01166417  0.37684926  0.83586937    -0.12700
N673        N  0.99753350  0.35028735  0.90019806     0.64500
H674        H  0.04669534  0.34610683  0.89286973     0.12300
N675        N  0.05125176  0.38035750  0.81202922     0.61100
H676        H  0.00179880  0.38457327  0.81951212     0.08500
O677        O  0.91864070  0.30555650  0.87927130    -0.40400
O678        O  0.91709436  0.30221534  0.83789270    -0.39500
O679        O  0.96284829  0.42576876  0.82815279    -0.39500
O680        O  0.97420507  0.42343553  0.86804189    -0.37200
O681        O  0.05659504  0.36351383  0.79570122    -0.38100
O682        O  0.05365955  0.40350230  0.80642147    -0.34300
O683        O  0.99843856  0.32741698  0.90726118    -0.35700
O684        O  0.98756206  0.36683560  0.91452758    -0.40000
C685        C  0.84838345  0.42514560  0.94503791    -0.13700
C686        C  0.83731617  0.41209994  0.96533410     0.16700
C687        C  0.82363065  0.38964519  0.96051151     0.03000
C688        C  0.82247441  0.37972858  0.93583287    -0.12200
C689        C  0.83427038  0.39217759  0.91553132    -0.03200
C690        C  0.84690594  0.41539837  0.92016341     0.02200
C691        C  0.84232947  0.42022212  0.99182862     0.09100
N692        N  0.81098702  0.37664005  0.98063298     0.65400
H693        H  0.81234634  0.36212248  0.93254112     0.18300
N694        N  0.85998743  0.42821823  0.90023546     0.75900
H695        H  0.85915381  0.44228431  0.94869413     0.09900
C696        C  0.85968112  0.40653802  0.00696842     0.03600
C697        C  0.86080137  0.41114278  0.03316732    -0.05200
C698        C  0.84529213  0.42970259  0.04470669    -0.23600
C699        C  0.82917677  0.44462601  0.02910077     0.12800
C700        C  0.82771519  0.43963178  0.00286200    -0.12700
N701        N  0.87608313  0.38772262  0.99592861     0.64500
H702        H  0.87396016  0.40007316  0.04454700     0.12300
N703        N  0.81295492  0.46374268  0.03966985     0.61100
H704        H  0.81429498  0.45016752  0.99126323     0.08500
O705        O  0.88211796  0.42122330  0.89405824    -0.40400
O706        O  0.85067148  0.44823758  0.89086747    -0.39500
O707        O  0.79071577  0.38575886  0.98974687    -0.39500
O708        O  0.81788640  0.35447323  0.98665472    -0.37200
O709        O  0.81793525  0.48687178  0.03604713    -0.38100
O710        O  0.79154115  0.45763430  0.04843297    -0.34300
O711        O  0.89257475  0.39419602  0.97984688    -0.35700
O712        O  0.87608285  0.36528732  0.00428467    -0.40000
C713        C  0.04424578  0.13770243  0.28484369    -0.13700
C714        C  0.02970372  0.12141958  0.29992883     0.16700
C715        C  0.04179873  0.10750031  0.31954334     0.03000
C716        C  0.06820779  0.11002621  0.32325477    -0.12200
C717        C  0.08283652  0.12508554  0.30690666    -0.03200
C718        C  0.07050784  0.13940720  0.28790523     0.02200
C719        C  0.00251487  0.11822163  0.29292389     0.09100
N720        N  0.02810217  0.08935315  0.33438484     0.65400
H721        H  0.07761440  0.09857564  0.33758249     0.18300
N722        N  0.08444930  0.15561973  0.27130626     0.75900
H723        H  0.03515014  0.14872508  0.26997325     0.09900
C724        C  0.98220975  0.12285112  0.30991319     0.03600
C725        C  0.95697901  0.12094265  0.30105763    -0.05200
C726        C  0.95161561  0.11534811  0.27536227    -0.23600
C727        C  0.97216656  0.11023960  0.25874131     0.12800
C728        C  0.99707670  0.11150279  0.26768808    -0.12700
N729        N  0.98679072  0.13062527  0.33570325     0.64500
H730        H  0.94155053  0.12491815  0.31410488     0.12300
N731        N  0.96826959  0.10370385  0.23259288     0.61100
H732        H  0.01247490  0.10753433  0.25456717     0.08500
O733        O  0.08466978  0.15113404  0.24769096    -0.40400
O734        O  0.09294281  0.17647028  0.27959164    -0.39500
O735        O  0.01490406  0.07250658  0.32348642    -0.39500
O736        O  0.03179240  0.08805063  0.35808852    -0.37200
O737        O  0.97233306  0.12002044  0.21559399    -0.38100
O738        O  0.96527743  0.08074320  0.22633654    -0.34300
O739        O  0.00126314  0.14914118  0.34041160    -0.35700
O740        O  0.97431362  0.12080196  0.35358816    -0.40000
C741        C  0.85079425  0.28667564  0.24684225    -0.13700
C742        C  0.86683082  0.27054803  0.23264294     0.16700
C743        C  0.88038923  0.28084319  0.21204877     0.03000
C744        C  0.87646623  0.30616200  0.20496435    -0.12200
C745        C  0.85942460  0.32208915  0.21817647    -0.03200
C746        C  0.84702388  0.31226837  0.23985530     0.02200
C747        C  0.86699613  0.24250775  0.23711516     0.09100
N748        N  0.89819543  0.26567180  0.19801153     0.65400
H749        H  0.88700847  0.31338432  0.18891964     0.18300
N750        N  0.82923200  0.32733178  0.25392974     0.75900
H751        H  0.84001029  0.27901888  0.26252802     0.09900
C752        C  0.87328128  0.23171146  0.26086405     0.03600
C753        C  0.87400285  0.20510151  0.26361885    -0.05200
C754        C  0.86882094  0.18889259  0.24288968    -0.23600
C755        C  0.86143235  0.19977896  0.21949055     0.12800
C756        C  0.86059193  0.22623439  0.21683507    -0.12700
N757        N  0.88035138  0.24745918  0.28191758     0.64500
H758        H  0.87969455  0.19711188  0.28172489     0.12300
N759        N  0.85385896  0.18419518  0.19844761     0.61100
H760        H  0.85477474  0.23416676  0.19873570     0.08500
O761        O  0.83343616  0.33230905  0.27707449    -0.40400
O762        O  0.80784368  0.33264496  0.24433308    -0.39500
O763        O  0.89581428  0.26317377  0.17422658    -0.39500
O764        O  0.91737012  0.25631393  0.20908624    -0.37200
O765        O  0.83202319  0.17434765  0.19820178    -0.38100
O766        O  0.86744349  0.18317234  0.17872021    -0.34300
O767        O  0.86570853  0.24957068  0.30078808    -0.35700
O768        O  0.90260862  0.25622571  0.28325317    -0.40000
C769        C  0.90068496  0.99151226  0.23753908    -0.13700
C770        C  0.88435229  0.97838912  0.25387206     0.16700
C771        C  0.86747691  0.99245578  0.26947873     0.03000
C772        C  0.86701071  0.01913235  0.26797372    -0.12200
C773        C  0.88341681  0.03228632  0.25160715    -0.03200
C774        C  0.90041629  0.01808774  0.23629996     0.02200
C775        C  0.88577292  0.95008492  0.25441748     0.09100
N776        N  0.85138678  0.98008329  0.28753496     0.65400
H777        H  0.85394226  0.02966043  0.27998444     0.18300
N778        N  0.91841347  0.03030701  0.22022771     0.75900
H779        H  0.91385741  0.98099476  0.22561683     0.09900
C780        C  0.86441164  0.93447188  0.24957090     0.03600
C781        C  0.86700463  0.90784845  0.25095212    -0.05200
C782        C  0.89076966  0.89643245  0.25556368    -0.23600
C783        C  0.91203556  0.91211724  0.25998580     0.12800
C784        C  0.90932484  0.93858206  0.25960620    -0.12700
N785        N  0.84056601  0.94519060  0.24152386     0.64500
H786        H  0.85076451  0.89598000  0.24662766     0.12300
N787        N  0.93652604  0.90144123  0.26524802     0.61100
H788        H  0.92581153  0.95029660  0.26342255     0.08500
O789        O  0.91278657  0.03448774  0.19726564    -0.40400
O790        O  0.94130310  0.03178113  0.22730794    -0.39500
O791        O  0.86070801  0.96433245  0.30305382    -0.39500
O792        O  0.82847524  0.98693238  0.28990030    -0.37200
O793        O  0.95467893  0.90520140  0.25009902    -0.38100
O794        O  0.94096852  0.89184324  0.28676697    -0.34300
O795        O  0.84001160  0.96180547  0.22428334    -0.35700
O796        O  0.81993071  0.93582222  0.24920009    -0.40000
C797        C  0.25419543  0.16061215  0.95318702    -0.13700
C798        C  0.22762099  0.16195990  0.95454727     0.16700
C799        C  0.21433365  0.14345300  0.96841677     0.03000
C800        C  0.22769423  0.12295230  0.97899754    -0.12200
C801        C  0.25410306  0.12028281  0.97557376    -0.03200
C802        C  0.26752560  0.14002136  0.96348298     0.02200
C803        C  0.21422625  0.18063255  0.93833700     0.09100
N804        N  0.18717256  0.14395434  0.97000798     0.65400
H805        H  0.21708263  0.10818185  0.98848077     0.18300
N806        N  0.29430416  0.13834435  0.95924168     0.75900
H807        H  0.26451383  0.17484774  0.94261093     0.09900
C808        C  0.19897246  0.20033662  0.94837465     0.03600
C809        C  0.18672782  0.21724389  0.93171811    -0.05200
C810        C  0.18991223  0.21511669  0.90522025    -0.23600
C811        C  0.20441992  0.19473779  0.89531186     0.12800
C812        C  0.21657023  0.17793640  0.91191926    -0.12700
N813        N  0.19697290  0.20430129  0.97527883     0.64500
H814        H  0.17595917  0.23298887  0.93961716     0.12300
N815        N  0.20641845  0.19040459  0.86845985     0.61100
H816        H  0.22766736  0.16233856  0.90413543     0.08500
O817        O  0.30919227  0.15214400  0.97207193    -0.40400
O818        O  0.30255078  0.12665884  0.93990681    -0.39500
O819        O  0.17395036  0.14036636  0.95024169    -0.39500
O820        O  0.17655015  0.14394529  0.99150697    -0.37200
O821        O  0.22792375  0.18671964  0.85846609    -0.38100
O822        O  0.18657614  0.18726662  0.85525836    -0.34300
O823        O  0.21677593  0.20785766  0.98843157    -0.35700
O824        O  0.17543410  0.20754644  0.98534079    -0.40000
C825        C  0.25006970  0.09251980  0.15021270    -0.13700
C826        C  0.26303044  0.06968893  0.14547768     0.16700
C827        C  0.27053542  0.05438576  0.16614925     0.03000
C828        C  0.26463017  0.06200762  0.19117132    -0.12200
C829        C  0.25087750  0.08452413  0.19579028    -0.03200
C830        C  0.24409068  0.10010856  0.17503882     0.02200
C831        C  0.26864483  0.06269990  0.11867678     0.09100
N832        N  0.28263241  0.03036997  0.16187189     0.65400
H833        H  0.26956143  0.04965815  0.20687319     0.18300
N834        N  0.23173007  0.12408900  0.17896946     0.75900
H835        H  0.24478030  0.10467503  0.13446268     0.09900
C836        C  0.24873038  0.05766219  0.10147019     0.03600
C837        C  0.25386941  0.05464535  0.07553303    -0.05200
C838        C  0.27877421  0.05652387  0.06604730    -0.23600
C839        C  0.29887589  0.06102419  0.08347230     0.12800
C840        C  0.29363571  0.06411077  0.10953723    -0.12700
N841        N  0.22306312  0.05584882  0.11012189     0.64500
H842        H  0.23808227  0.05118390  0.06270893     0.12300
N843        N  0.32465276  0.06251085  0.07510702     0.61100
H844        H  0.30906044  0.06822478  0.12261679     0.08500
O845        O  0.21120231  0.12909141  0.16750407    -0.40400
O846        O  0.24277714  0.14130247  0.19157239    -0.39500
O847        O  0.30516064  0.02671964  0.16937036    -0.39500
O848        O  0.26993065  0.01200848  0.15307717    -0.37200
O849        O  0.33591908  0.08362813  0.07522184    -0.38100
O850        O  0.33712735  0.04238453  0.07094597    -0.34300
O851        O  0.20686242  0.07231489  0.10350727    -0.35700
O852        O  0.21599597  0.03641736  0.12209941    -0.40000
C853        C  0.31630240  0.93476419  0.00327179    -0.13700
C854        C  0.33961898  0.93000533  0.99138881     0.16700
C855        C  0.35449425  0.95048455  0.98300745     0.03000
C856        C  0.34523436  0.97539937  0.98567292    -0.12200
C857        C  0.32103216  0.98006827  0.99603527    -0.03200
C858        C  0.30699251  0.95952953  0.00585422     0.02200
C859        C  0.34649785  0.90339522  0.98576519     0.09100
N860        N  0.37802302  0.94616175  0.97007532     0.65400
H861        H  0.35619773  0.99092250  0.97795182     0.18300
N862        N  0.28318931  0.96351008  0.01838772     0.75900
H863        H  0.30499283  0.91904135  0.01006619     0.09900
C864        C  0.36428486  0.88985345  0.00049274     0.03600
C865        C  0.36798551  0.86381168  0.99600823    -0.05200
C866        C  0.35400169  0.85101261  0.97705519    -0.23600
C867        C  0.33690224  0.86502051  0.96166359     0.12800
C868        C  0.33316601  0.89091573  0.96637432    -0.12700
N869        N  0.37745980  0.90192443  0.02103063     0.64500
H870        H  0.38093335  0.85337876  0.00820270     0.12300
N871        N  0.32339365  0.85338530  0.94100074     0.61100
H872        H  0.31962454  0.90142497  0.95487555     0.08500
O873        O  0.28264531  0.97416993  0.03994678    -0.40400
O874        O  0.26314865  0.95391596  0.00930843    -0.39500
O875        O  0.37798474  0.93619021  0.94818311    -0.39500
O876        O  0.39829439  0.95558231  0.97880613    -0.37200
O877        O  0.33550880  0.84278263  0.92314693    -0.38100
O878        O  0.29962867  0.85629947  0.93903467    -0.34300
O879        O  0.36907260  0.89998026  0.04339982    -0.35700
O880        O  0.39940443  0.91078098  0.01747594    -0.40000
C881        C  0.30291132  0.06649600  0.81419094    -0.13700
C882        C  0.30152369  0.04336974  0.82731232     0.16700
C883        C  0.29750436  0.02078812  0.81345078     0.03000
C884        C  0.29352559  0.02173828  0.78710370    -0.12200
C885        C  0.29375914  0.04494355  0.77399215    -0.03200
C886        C  0.29887823  0.06752849  0.78772462     0.02200
C887        C  0.30007288  0.04352238  0.85555434     0.09100
N888        N  0.29713365  0.99677298  0.82603216     0.65400
H889        H  0.29000411  0.00419470  0.77683674     0.18300
N890        N  0.29753332  0.09181101  0.77564755     0.75900
H891        H  0.30537539  0.08402222  0.82479687     0.09900
C892        C  0.32123126  0.04907907  0.87100215     0.03600
C893        C  0.31858462  0.05014908  0.89760135    -0.05200
C894        C  0.29489552  0.04594579  0.90929881    -0.23600
C895        C  0.27364203  0.04053322  0.89353511     0.12800
C896        C  0.27652078  0.03908447  0.86705715    -0.12700
N897        N  0.34561196  0.05317199  0.85991807     0.64500
H898        H  0.33520282  0.05421006  0.90911511     0.12300
N899        N  0.24870653  0.03770189  0.90387936     0.61100
H900        H  0.26001229  0.03524207  0.85527854     0.08500
O901        O  0.31581470  0.10713009  0.77776537    -0.40400
O902        O  0.27677497  0.09936624  0.76614826    -0.39500
O903        O  0.27709741  0.98367795  0.82607429    -0.39500
O904        O  0.31753345  0.98743271  0.83465995    -0.37200
O905        O  0.23609505  0.05717379  0.91022970    -0.38100
O906        O  0.23787584  0.01637250  0.90292948    -0.34300
O907        O  0.35321108  0.07550293  0.85597312    -0.35700
O908        O  0.36055172  0.03465277  0.85648384    -0.40000
C909        C  0.90726241  0.28199060  0.71817285    -0.13700
C910        C  0.88092921  0.28088737  0.71458323     0.16700
C911        C  0.87098651  0.26983114  0.69233926     0.03000
C912        C  0.88759694  0.26015754  0.67384933    -0.12200
C913        C  0.91413549  0.26155937  0.67718808    -0.03200
C914        C  0.92395039  0.27229222  0.69987585     0.02200
C915        C  0.86462771  0.29217754  0.73437187     0.09100
N916        N  0.84417081  0.26882322  0.68808607     0.65400
H917        H  0.87967209  0.25230426  0.65648188     0.18300
N918        N  0.95069977  0.27290463  0.70500425     0.75900
H919        H  0.91488352  0.29030246  0.73548899     0.09900
C920        C  0.85938571  0.27881189  0.75678528     0.03600
C921        C  0.84992941  0.29185008  0.77800931    -0.05200
C922        C  0.84594936  0.31834333  0.77742640    -0.23600
C923        C  0.84920555  0.33120559  0.75406241     0.12800
C924        C  0.85854200  0.31801769  0.73283360    -0.12700
N925        N  0.86539120  0.25238404  0.75881533     0.64500
H926        H  0.84722151  0.28134678  0.79545173     0.12300
N927        N  0.84484509  0.35791219  0.75191388     0.61100
H928        H  0.86261749  0.32835746  0.71555240     0.08500
O929        O  0.96107494  0.29340938  0.71189589    -0.40400
O930        O  0.96327411  0.25244133  0.70585207    -0.39500
O931        O  0.83321117  0.28659124  0.67625667    -0.39500
O932        O  0.83222753  0.24863688  0.69269209    -0.37200
O933        O  0.86339949  0.37299471  0.75309861    -0.38100
O934        O  0.82349122  0.36591350  0.74433133    -0.34300
O935        O  0.88716922  0.24555876  0.76634669    -0.35700
O936        O  0.84802831  0.23607966  0.75638879    -0.40000
C937        C  0.08989580  0.93481595  0.58182471    -0.13700
C938        C  0.08809407  0.95169307  0.60248160     0.16700
C939        C  0.06399900  0.95826494  0.61227390     0.03000
C940        C  0.04220640  0.94795419  0.60105415    -0.12200
C941        C  0.04386043  0.93212258  0.57950007    -0.03200
C942        C  0.06802632  0.92499484  0.57027352     0.02200
C943        C  0.11133438  0.96419063  0.61190317     0.09100
N944        N  0.06120287  0.97693950  0.63208166     0.65400
H945        H  0.02377626  0.95391668  0.60812333     0.18300
N946        N  0.07067879  0.90781830  0.54928819     0.75900
H947        H  0.10840249  0.92967060  0.57432761     0.09900
C948        C  0.11968752  0.96182296  0.63727200     0.03600
C949        C  0.14011749  0.97654664  0.64588470    -0.05200
C950        C  0.15281693  0.99316468  0.62941478    -0.23600
C951        C  0.14493616  0.99460415  0.60367731     0.12800
C952        C  0.12411478  0.98042255  0.59537027    -0.12700
N953        N  0.10781078  0.94439916  0.65431166     0.64500
H954        H  0.14597565  0.97502326  0.66558530     0.12300
N955        N  0.15826499  0.00957417  0.58544011     0.61100
H956        H  0.11780289  0.98210739  0.57579780     0.08500
O957        O  0.06797964  0.88427247  0.55271469    -0.40400
O958        O  0.07904278  0.91572694  0.52830778    -0.39500
O959        O  0.07123948  0.99854359  0.62974193    -0.39500
O960        O  0.04571879  0.97327287  0.64997844    -0.37200
O961        O  0.18107696  0.00428058  0.58013458    -0.38100
O962        O  0.14623206  0.02529076  0.57184374    -0.34300
O963        O  0.10802172  0.92092085  0.64929826    -0.35700
O964        O  0.10017391  0.95195448  0.67581319    -0.40000
C965        C  0.98209226  0.03409991  0.50964078    -0.13700
C966        C  0.97011807  0.04873626  0.52854836     0.16700
C967        C  0.95761525  0.03615625  0.54858110     0.03000
C968        C  0.95759694  0.00951545  0.54953796    -0.12200
C969        C  0.97014106  0.99471055  0.53103401    -0.03200
C970        C  0.98213088  0.00741396  0.51058968     0.02200
C971        C  0.96966293  0.07704213  0.52661297     0.09100
N972        N  0.94564965  0.05020915  0.56868230     0.65400
H973        H  0.94831729  0.00042956  0.56541931     0.18300
N974        N  0.99437023  0.99364207  0.49052398     0.75900
H975        H  0.99118336  0.04345281  0.49379508     0.09900
C976        C  0.99218786  0.09148942  0.52499261     0.03600
C977        C  0.99086180  0.11820977  0.52489024    -0.05200
C978        C  0.96736998  0.13088442  0.52672140    -0.23600
C979        C  0.94479178  0.11638864  0.52639674     0.12800
C980        C  0.94616480  0.08977067  0.52651014    -0.12700
N981        N  0.01658570  0.07937348  0.52532118     0.64500
H982        H  0.00833235  0.12901698  0.52532344     0.12300
N983        N  0.92031687  0.12848832  0.52582541     0.61100
H984        H  0.92872557  0.07890029  0.52660513     0.08500
O985        O  0.01826300  0.99424691  0.48851477    -0.40400
O986        O  0.98121161  0.98425655  0.47271627    -0.39500
O987        O  0.92277065  0.04591677  0.57434437    -0.39500
O988        O  0.95850501  0.06538793  0.58216320    -0.37200
O989        O  0.91537876  0.14490181  0.50906945    -0.38100
O990        O  0.90288037  0.12115076  0.54047132    -0.34300
O991        O  0.03175693  0.08246714  0.50705717    -0.35700
O992        O  0.02385533  0.06743669  0.54481912    -0.40000
C993        C  0.99645025  0.80387436  0.58237090    -0.13700
C994        C  0.00346194  0.78862009  0.56151226     0.16700
C995        C  0.00214181  0.79892120  0.53687515     0.03000
C996        C  0.99453764  0.82426966  0.53354518    -0.12200
C997        C  0.98825834  0.83990153  0.55445372    -0.03200
C998        C  0.98886585  0.82923984  0.57910294     0.02200
C999        C  0.01164308  0.76189616  0.56594255     0.09100
N1000       N  0.00961175  0.78423031  0.51516400     0.65400
H1001       H  0.99423407  0.83193837  0.51446618     0.18300
N1002       N  0.98275054  0.84405836  0.60113282     0.75900
H1003       H  0.99694305  0.79603283  0.60138347     0.09900
C1004       C  0.03217654  0.75638386  0.58226952     0.03600
C1005       C  0.03773548  0.73118673  0.58859748    -0.05200
C1006       C  0.02327777  0.71088886  0.57887111    -0.23600
C1007       C  0.00325457  0.71634515  0.56167401     0.12800
C1008       C  0.99771502  0.74171825  0.55531374    -0.12700
N1009       N  0.04778332  0.77624267  0.59234368     0.64500
H1010       H  0.05367721  0.72754860  0.60115498     0.12300
N1011       N  0.98724520  0.69668342  0.55188594     0.61100
H1012       H  0.98168554  0.74575212  0.54296815     0.08500
O1013       O  0.00033785  0.85209178  0.61540049    -0.40400
O1014       O  0.95997583  0.84554243  0.60850055    -0.39500
O1015       O  0.99388650  0.78004655  0.49746503    -0.39500
O1016       O  0.03255770  0.77765924  0.51246245    -0.37200
O1017       O  0.98542386  0.69329215  0.52816192    -0.38100
O1018       O  0.97201618  0.68552842  0.56654651    -0.34300
O1019       O  0.04883753  0.77999728  0.61605739    -0.35700
O1020       O  0.06281400  0.78790273  0.57788093    -0.40000
C1021       C  0.86331583  0.89262323  0.50900036    -0.13700
C1022       C  0.86031049  0.89729583  0.48291348     0.16700
C1023       C  0.88143791  0.90549513  0.46874209     0.03000
C1024       C  0.90509404  0.90853559  0.48078219    -0.12200
C1025       C  0.90809552  0.90367523  0.50690763    -0.03200
C1026       C  0.88681441  0.89550690  0.52100660     0.02200
C1027       C  0.83431767  0.89554798  0.47195736     0.09100
N1028       N  0.87918642  0.91078964  0.44218227     0.65400
H1029       H  0.92109078  0.91502324  0.46967452     0.18300
N1030       N  0.88864093  0.88992912  0.54755311     0.75900
H1031       H  0.84712273  0.88702476  0.52033067     0.09900
C1032       C  0.81903825  0.87411318  0.47680210     0.03600
C1033       C  0.79273091  0.87566588  0.47320989    -0.05200
C1034       C  0.78146266  0.89775281  0.46353620    -0.23600
C1035       C  0.79689650  0.91826636  0.45636680     0.12800
C1036       C  0.82313658  0.91721129  0.46100628    -0.12700
N1037       N  0.82999241  0.85093188  0.48602388     0.64500
H1038       H  0.78095931  0.85960347  0.47818035     0.12300
N1039       N  0.78590914  0.94113468  0.44666123     0.61100
H1040       H  0.83446755  0.93397173  0.45760266     0.08500
O1041       O  0.89628688  0.86831653  0.55460703    -0.40400
O1042       O  0.87916938  0.90508892  0.56365383    -0.39500
O1043       O  0.88315035  0.93297747  0.43416113    -0.39500
O1044       O  0.87651485  0.89276927  0.42648885    -0.37200
O1045       O  0.78519372  0.94481596  0.42296749    -0.38100
O1046       O  0.77996540  0.95892390  0.46172340    -0.34300
O1047       O  0.82062726  0.84002955  0.50514352    -0.35700
O1048       O  0.84771107  0.84023718  0.47380039    -0.40000
C1049       C  0.65963308  0.35008854  0.83912199    -0.13700
C1050       C  0.67910950  0.33701517  0.82623872     0.16700
C1051       C  0.67277919  0.31680623  0.80980783     0.03000
C1052       C  0.64745930  0.30925118  0.80729044    -0.12200
C1053       C  0.62793631  0.32166344  0.82070883    -0.03200
C1054       C  0.63410280  0.34244863  0.83667319     0.02200
C1055       C  0.70617108  0.34223540  0.83229806     0.09100
N1056       N  0.69201603  0.30371522  0.79562277     0.65400
H1057       H  0.64303268  0.29357583  0.79462001     0.18300
N1058       N  0.61512381  0.35449849  0.85210864     0.75900
H1059       H  0.66444985  0.36527571  0.85223886     0.09900
C1060       C  0.71818823  0.36478286  0.82481817     0.03600
C1061       C  0.74431014  0.36803581  0.82940512    -0.05200
C1062       C  0.75886451  0.34908156  0.84161901    -0.23600
C1063       C  0.74625409  0.32695986  0.85019224     0.12800
C1064       C  0.72030147  0.32369628  0.84520564    -0.12700
N1065       N  0.70432969  0.38399560  0.81151417     0.64500
H1066       H  0.75331853  0.38520878  0.82273025     0.12300
N1067       N  0.75939764  0.30749403  0.86391034     0.61100
H1068       H  0.71105710  0.30645638  0.85143536     0.08500
O1069       O  0.61277862  0.37836985  0.85200700    -0.40400
O1070       O  0.60296765  0.34165674  0.86819700    -0.39500
O1071       O  0.69548849  0.28019240  0.79871647    -0.39500
O1072       O  0.70417163  0.31523680  0.77856839    -0.37200
O1073       O  0.76429823  0.31064204  0.88723701    -0.38100
O1074       O  0.76266775  0.28590959  0.85384305    -0.34300
O1075       O  0.69787272  0.40418687  0.82286212    -0.35700
O1076       O  0.69974080  0.38140986  0.78806536    -0.40000
C1077       C  0.73065808  0.06460119  0.16545207    -0.13700
C1078       C  0.75106762  0.05300924  0.17817071     0.16700
C1079       C  0.75357392  0.02637994  0.17761921     0.03000
C1080       C  0.73529577  0.01174754  0.16504100    -0.12200
C1081       C  0.71462992  0.02320772  0.15248223    -0.03200
C1082       C  0.71239647  0.04997820  0.15269334     0.02200
C1083       C  0.76947911  0.06887980  0.19228269     0.09100
N1084       N  0.77507912  0.01404717  0.18896807     0.65400
H1085       H  0.73761939  0.99129496  0.16462647     0.18300
N1086       N  0.69100202  0.06255426  0.14147770     0.75900
H1087       H  0.72853691  0.08507959  0.16605154     0.09900
C1088       C  0.78441288  0.08690147  0.17959388     0.03600
C1089       C  0.80283040  0.10047490  0.19314955    -0.05200
C1090       C  0.80722475  0.09586108  0.21912529    -0.23600
C1091       C  0.79102826  0.07904693  0.23217687     0.12800
C1092       C  0.77238424  0.06565520  0.21862240    -0.12700
N1093       N  0.78267158  0.08992666  0.15258212     0.64500
H1094       H  0.81516377  0.11321077  0.18281674     0.12300
N1095       N  0.79453275  0.07385983  0.25864739     0.61100
H1096       H  0.76057096  0.05213148  0.22855556     0.08500
O1097       O  0.66936302  0.06064484  0.15158515    -0.40400
O1098       O  0.69435579  0.07848169  0.12395257    -0.39500
O1099       O  0.77187762  0.99760339  0.20603526    -0.39500
O1100       O  0.79702866  0.01756918  0.18004565    -0.37200
O1101       O  0.80255517  0.05235743  0.26563939    -0.38100
O1102       O  0.78694179  0.08970461  0.27508430    -0.34300
O1103       O  0.77927593  0.11171326  0.14322457    -0.35700
O1104       O  0.78721184  0.07131175  0.13801906    -0.40000
C1105       C  0.51886183  0.05372948  0.78686664    -0.13700
C1106       C  0.53449665  0.07266406  0.77676542     0.16700
C1107       C  0.55776754  0.06573482  0.76548326     0.03000
C1108       C  0.56590422  0.04043244  0.76600561    -0.12200
C1109       C  0.55102324  0.02157055  0.77737305    -0.03200
C1110       C  0.52692786  0.02827141  0.78729309     0.02200
C1111       C  0.52903588  0.09966388  0.78266748     0.09100
N1112       N  0.57368451  0.08446407  0.75415600     0.65400
H1113       H  0.58418488  0.03559851  0.75781029     0.18300
N1114       N  0.51156434  0.01000402  0.80003395     0.75900
H1115       H  0.50117685  0.05897854  0.79606034     0.09900
C1116       C  0.50785225  0.11269797  0.77268061     0.03600
C1117       C  0.50368394  0.13827431  0.77933002    -0.05200
C1118       C  0.52040488  0.15108224  0.79591121    -0.23600
C1119       C  0.54075665  0.13732818  0.80709038     0.12800
C1120       C  0.54503337  0.11204480  0.80001379    -0.12700
N1121       N  0.49118035  0.10057701  0.75490110     0.64500
H1122       H  0.48803378  0.14842169  0.77053640     0.12300
N1123       N  0.55672133  0.14834592  0.82632957     0.61100
H1124       H  0.56068512  0.10169729  0.80862663     0.08500
O1125       O  0.49135452  0.00216382  0.78971884    -0.40400
O1126       O  0.51636439  0.00432704  0.82285765    -0.39500
O1127       O  0.59491991  0.08973320  0.76405181    -0.39500
O1128       O  0.56769396  0.09381751  0.73289531    -0.37200
O1129       O  0.54692353  0.15822068  0.84594410    -0.38100
O1130       O  0.58055031  0.14554755  0.82522893    -0.34300
O1131       O  0.46806563  0.09749227  0.76039444    -0.35700
O1132       O  0.49888197  0.09541146  0.73274530    -0.40000
C1133       C  0.55888481  0.94469022  0.90462167    -0.13700
C1134       C  0.58002646  0.95469708  0.91741855     0.16700
C1135       C  0.60053908  0.96425848  0.90318882     0.03000
C1136       C  0.59912799  0.96446357  0.87658884    -0.12200
C1137       C  0.57807128  0.95432000  0.86351140    -0.03200
C1138       C  0.55779122  0.94420506  0.87793189     0.02200
C1139       C  0.58025946  0.95583179  0.94563695     0.09100
N1140       N  0.62336682  0.97283886  0.91545113     0.65400
H1141       H  0.61514670  0.97186719  0.86611482     0.18300
N1142       N  0.53612011  0.93300845  0.86593371     0.75900
H1143       H  0.54312761  0.93719329  0.91543960     0.09900
C1144       C  0.58216554  0.97930778  0.95860364     0.03600
C1145       C  0.58643516  0.97958428  0.98493280    -0.05200
C1146       C  0.58790727  0.95693731  0.99884894    -0.23600
C1147       C  0.58477498  0.93351344  0.98602461     0.12800
C1148       C  0.58089844  0.93316904  0.95958059    -0.12700
N1149       N  0.57946395  0.00293495  0.94531479     0.64500
H1150       H  0.58816697  0.99767204  0.99470679     0.12300
N1151       N  0.58747133  0.90992925  0.99917779     0.61100
H1152       H  0.57968467  0.91508991  0.94970100     0.08500
O1153       O  0.51519843  0.94483584  0.86576664    -0.40400
O1154       O  0.53668291  0.90980497  0.85978634    -0.39500
O1155       O  0.63508972  0.95836194  0.93060391    -0.39500
O1156       O  0.63361657  0.99333633  0.90863438    -0.37200
O1157       O  0.56931188  0.89434686  0.99939194    -0.38100
O1158       O  0.60895920  0.90326836  0.00765515    -0.34300
O1159       O  0.56133902  0.00609311  0.92982328    -0.35700
O1160       O  0.59351281  0.02153133  0.95094242    -0.40000
C1161       C  0.61510743  0.92909863  0.67102255    -0.13700
C1162       C  0.59755922  0.94010724  0.65410649     0.16700
C1163       C  0.57557449  0.95201905  0.66399910     0.03000
C1164       C  0.57148610  0.95254452  0.69044485    -0.12200
C1165       C  0.58944976  0.94207445  0.70724665    -0.03200
C1166       C  0.61131483  0.93012598  0.69732821     0.02200
C1167       C  0.60203911  0.93725663  0.62626517     0.09100
N1168       N  0.55802963  0.96479679  0.64754605     0.65400
H1169       H  0.55486356  0.96219489  0.69794032     0.18300
N1170       N  0.62919983  0.91782231  0.71375359     0.75900
H1171       H  0.63165930  0.91917139  0.66371943     0.09900
C1172       C  0.62559109  0.94402067  0.61558826     0.03600
C1173       C  0.63159015  0.93628977  0.59082273    -0.05200
C1174       C  0.61436919  0.92223483  0.57593656    -0.23600
C1175       C  0.59012330  0.91682240  0.58601010     0.12800
C1176       C  0.58418554  0.92437234  0.61102986    -0.12700
N1177       N  0.64364710  0.95871887  0.62976274     0.64500
H1178       H  0.64990242  0.94151212  0.58313802     0.12300
N1179       N  0.57212131  0.90199785  0.57197125     0.61100
H1180       H  0.56617238  0.91872431  0.61912089     0.08500
O1181       O  0.62406599  0.89628920  0.72278959    -0.40400
O1182       O  0.65131689  0.92668623  0.71631554    -0.39500
O1183       O  0.53468709  0.95941046  0.64819036    -0.39500
O1184       O  0.56541541  0.98331830  0.63436476    -0.37200
O1185       O  0.57676154  0.87889643  0.56728737    -0.38100
O1186       O  0.55022907  0.91085769  0.56750323    -0.34300
O1187       O  0.66634484  0.95110949  0.63190297    -0.35700
O1188       O  0.63756085  0.98046518  0.63801852    -0.40000
C1189       C  0.61376309  0.83773220  0.81476973    -0.13700
C1190       C  0.63578271  0.83084152  0.80139939     0.16700
C1191       C  0.64705384  0.84840720  0.78473215     0.03000
C1192       C  0.63638259  0.87270796  0.78217302    -0.12200
C1193       C  0.61403024  0.87938262  0.79513546    -0.03200
C1194       C  0.60285653  0.86180316  0.81178496     0.02200
C1195       C  0.64718628  0.80557184  0.80609120     0.09100
N1196       N  0.66860452  0.84146621  0.76956701     0.65400
H1197       H  0.64506378  0.88611596  0.76931423     0.18300
N1198       N  0.58150415  0.86877353  0.82708989     0.75900
H1199       H  0.60534290  0.82452428  0.82802447     0.09900
C1200       C  0.67137599  0.80288926  0.81747418     0.03600
C1201       C  0.68096486  0.77853621  0.82247236    -0.05200
C1202       C  0.66645113  0.75676243  0.81724724    -0.23600
C1203       C  0.64259444  0.75955778  0.80510754     0.12800
C1204       C  0.63317974  0.78386869  0.79976810    -0.12700
N1205       N  0.68544411  0.82462094  0.82597498     0.64500
H1206       H  0.69896519  0.77682845  0.83239883     0.12300
N1207       N  0.62774948  0.73792088  0.79800652     0.61100
H1208       H  0.61474100  0.78586656  0.79069957     0.08500
O1209       O  0.58506374  0.87947426  0.84834065    -0.40400
O1210       O  0.55959693  0.86100952  0.82118180    -0.39500
O1211       O  0.66724931  0.82267556  0.75460756    -0.39500
O1212       O  0.68762130  0.85596096  0.76853405    -0.37200
O1213       O  0.60506361  0.73609262  0.80552578    -0.38100
O1214       O  0.63597737  0.72268409  0.78130761    -0.34300
O1215       O  0.67536407  0.84031156  0.84118563    -0.35700
O1216       O  0.70892692  0.82614642  0.82137671    -0.40000
C1217       C  0.43534676  0.97435469  0.35398531    -0.13700
C1218       C  0.43158139  0.96579241  0.37895464     0.16700
C1219       C  0.43492759  0.93974537  0.38419089     0.03000
C1220       C  0.44336176  0.92332632  0.36490127    -0.12200
C1221       C  0.45005386  0.93241689  0.34064658    -0.03200
C1222       C  0.44473352  0.95815015  0.33496815     0.02200
C1223       C  0.42341971  0.98433708  0.39882761     0.09100
N1224       N  0.43152891  0.92990617  0.40932177     0.65400
H1225       H  0.44628439  0.90354123  0.36959474     0.18300
N1226       N  0.44946310  0.96859008  0.31043525     0.75900
H1227       H  0.43151948  0.99402077  0.34930195     0.09900
C1228       C  0.43571046  0.00804762  0.40159907     0.03600
C1229       C  0.42511703  0.02675080  0.41740184    -0.05200
C1230       C  0.40321340  0.02187950  0.43157669    -0.23600
C1231       C  0.39180594  0.99773642  0.43013105     0.12800
C1232       C  0.40179532  0.97930575  0.41359503    -0.12700
N1233       N  0.45897411  0.01334246  0.38855346     0.64500
H1234       H  0.43408672  0.04520371  0.41872927     0.12300
N1235       N  0.36894106  0.99234801  0.44371252     0.61100
H1236       H  0.39183293  0.96147305  0.41135721     0.08500
O1237       O  0.46782777  0.98362873  0.30748049    -0.40400
O1238       O  0.43248432  0.96713822  0.29347186    -0.39500
O1239       O  0.41818952  0.91034092  0.41268706    -0.39500
O1240       O  0.44395450  0.93910607  0.42775160    -0.37200
O1241       O  0.36872891  0.97487447  0.46005844    -0.38100
O1242       O  0.34835021  0.00301400  0.43736934    -0.34300
O1243       O  0.46146065  0.03383596  0.37646247    -0.35700
O1244       O  0.47773568  0.99845169  0.39070101    -0.40000
C1245       C  0.40217914  0.49243971  0.90809955    -0.13700
C1246       C  0.42439529  0.50509185  0.90101783     0.16700
C1247       C  0.42975935  0.50861940  0.87504148     0.03000
C1248       C  0.41343397  0.49832726  0.85662420    -0.12200
C1249       C  0.39198767  0.48415555  0.86362424    -0.03200
C1250       C  0.38597839  0.48191441  0.88971287     0.02200
C1251       C  0.44220340  0.51358604  0.92105811     0.09100
N1252       N  0.45246833  0.52118283  0.86710679     0.65400
H1253       H  0.41827135  0.50030552  0.83671032     0.18300
N1254       N  0.36479745  0.46728385  0.89803622     0.75900
H1255       H  0.39793092  0.48985981  0.92808076     0.09900
C1256       C  0.44577526  0.53956775  0.92645170     0.03600
C1257       C  0.46308995  0.54675118  0.94538598    -0.05200
C1258       C  0.47670430  0.52843002  0.95925424    -0.23600
C1259       C  0.47347827  0.50255321  0.95357235     0.12800
C1260       C  0.45616103  0.49526921  0.93461728    -0.12700
N1261       N  0.43129930  0.55873092  0.91357833     0.64500
H1262       H  0.46544278  0.56674631  0.94980942     0.12300
N1263       N  0.48724499  0.48355527  0.96726116     0.61100
H1264       H  0.45363486  0.47526776  0.93036749     0.08500
O1265       O  0.34614453  0.47829734  0.90844283    -0.40400
O1266       O  0.36676335  0.44341773  0.89927983    -0.39500
O1267       O  0.47392860  0.51179601  0.87252341    -0.39500
O1268       O  0.45109924  0.53965677  0.85194288    -0.37200
O1269       O  0.47642333  0.47131243  0.98469658    -0.38100
O1270       O  0.50921315  0.47707190  0.96007030    -0.34300
O1271       O  0.40735496  0.55884558  0.91513675    -0.35700
O1272       O  0.44243873  0.57738677  0.90363416    -0.40000
loop_ 
_geom_bond_atom_site_label_1 
_geom_bond_atom_site_label_2 
_geom_bond_distance 
_geom_bond_site_symmetry_2 
_ccdc_geom_bond_type 
N1            N2   1.322       .  A
N1            C5   1.344       .  A
N1           Cu9   2.058       .  S
N2            C3   1.350   1_554  A
N2           Cu8   2.102   1_554  S
C3            C4   1.390   1_556  A
C3            H6   1.082       .  S
C4            C5   1.379       .  A
C4          C386   1.477       .  S
C5            H7   1.082       .  S
Cu8          N11   2.103       .  S
Cu9          N19   2.053       .  S
Cu10         N12   2.073       .  S
Cu10         N18   2.073       .  S
N11          N12   1.324       .  A
N11          C15   1.347       .  A
N12          C13   1.348       .  A
C13          C14   1.381       .  A
C13          H16   1.082       .  S
C14          C15   1.387       .  A
C14         C458   1.474       .  S
C15          H17   1.082       .  S
N18          N19   1.320   1_556  A
N18          C22   1.346       .  A
N19          C20   1.340   1_554  A
C20          C21   1.380       .  A
C20          H23   1.082   1_556  S
C21          C22   1.385       .  A
C21        C1258   1.471       .  S
C22          H24   1.082       .  S
N25          N26   1.321       .  A
N25          C29   1.342       .  A
N25         Cu33   2.058       .  S
N26          C27   1.350       .  A
N26         Cu32   2.089       .  S
C27          C28   1.389       .  A
C27          H30   1.082       .  S
C28          C29   1.381       .  A
C28         C148   1.476       .  S
C29          H31   1.082       .  S
Cu32         N35   2.091       .  S
Cu33         N43   2.057       .  S
Cu34         N36   2.084       .  S
Cu34         N42   2.082       .  S
N35          N36   1.325       .  A
N35          C39   1.344       .  A
N36          C37   1.350       .  A
C37          C38   1.384       .  A
C37          H40   1.082       .  S
C38          C39   1.385       .  A
C38         C324   1.477       .  S
C39          H41   1.081       .  S
N42          N43   1.321       .  A
N42          C46   1.348       .  A
N43          C44   1.340       .  A
C44          C45   1.381       .  A
C44          H47   1.082       .  S
C45          C46   1.390       .  A
C45        C1249   1.483       .  S
C46          H48   1.081       .  S
N49          N50   1.320       .  A
N49          C53   1.343       .  A
N49         Cu57   2.053       .  S
N50          C51   1.347       .  A
N50         Cu56   2.078       .  S
C51          C52   1.387       .  A
C51          H54   1.082       .  S
C52          C53   1.380       .  A
C52         C434   1.471       .  S
C53          H55   1.082       .  S
Cu56         N59   2.080       .  S
Cu57         N67   2.050       .  S
Cu58         N60   2.085       .  S
Cu58         N66   2.085       .  S
N59          N60   1.324       .  A
N59          C63   1.342       .  A
N60          C61   1.350       .  A
C61          C62   1.385       .  A
C61          H64   1.082       .  S
C62          C63   1.382       .  A
C62         C124   1.474       .  S
C63          H65   1.082       .  S
N66          N67   1.319       .  A
N66          C70   1.348       .  A
N67          C68   1.337       .  A
C68          C69   1.385       .  A
C68          H71   1.081       .  S
C69          C70   1.397       .  A
C69        C1221   1.495       .  S
C70          H72   1.077       .  S
N73          N74   1.322       .  A
N73          C77   1.342       .  A
N73         Cu81   2.058       .  S
N74          C75   1.350       .  A
N74         Cu80   2.098       .  S
C75          C76   1.390       .  A
C75          H78   1.082       .  S
C76          C77   1.380       .  A
C76         C300   1.476       .  S
C77          H79   1.082       .  S
Cu80         N83   2.099       .  S
Cu81         N91   2.055       .  S
Cu82         N84   2.074       .  S
Cu82         N90   2.073       .  S
N83          N84   1.324       .  A
N83          C87   1.347       .  A
N84          C85   1.347       .  A
C85          C86   1.382       .  A
C85          H88   1.082       .  S
C86          C87   1.387       .  A
C86         C210   1.476       .  S
C87          H89   1.082       .  S
N90          N91   1.321       .  A
N90          C94   1.347       .  A
N91          C92   1.341       .  A
C92          C93   1.378       .  A
C92          H95   1.082       .  S
C93          C94   1.385       .  A
C93        C1230   1.471       .  S
C94          H96   1.082       .  S
O97        Cu105   2.028       .  S
O97         C107   1.279       .  A
O98        Cu105   2.016       .  S
O98         C108   1.278       .  A
O99        Cu105   2.012       .  S
O99         C109   1.278       .  A
O100       Cu105   2.012       .  S
O100        C110   1.279       .  A
O101       Cu106   1.996       .  S
O101        C110   1.275       .  A
O102       Cu106   2.004       .  S
O102        C109   1.278       .  A
O103       Cu106   2.006       .  S
O103        C108   1.279       .  A
O104       Cu106   2.001       .  S
O104        C107   1.277       .  A
Cu105      Cu106   2.371       .  S
C107       C1165   1.477       .  S
C108       C1137   1.492       .  S
C109       C1109   1.481   1_565  S
C110       C1193   1.472       .  S
N111        N112   1.319       .  A
N111        C115   1.346   1_565  A
N111       Cu119   2.068       .  S
N112        C113   1.339       .  A
N112       Cu118   2.052       .  S
C113        C114   1.382   1_565  A
C113        H116   1.082       .  S
C114        C115   1.389       .  A
C114       C1081   1.479       .  S
C115        H117   1.081       .  S
Cu118       N121   2.051       .  S
Cu119       N129   2.069       .  S
Cu120       N122   2.092       .  S
Cu120       N128   2.094       .  S
N121        N122   1.321       .  A
N121        C125   1.339       .  A
N122        C123   1.351       .  A
C123        C124   1.390       .  A
C123        H126   1.082       .  S
C124        C125   1.378       .  A
C125        H127   1.082       .  S
N128        N129   1.324       .  A
N128        C132   1.349       .  A
N129        C130   1.342       .  A
C130        C131   1.380       .  A
C130        H133   1.082       .  S
C131        C132   1.388       .  A
C131       C1146   1.481   1_554  S
C132        H134   1.082       .  S
N135        N136   1.319       .  A
N135        C139   1.338       .  A
N135       Cu143   2.050       .  S
N136        C137   1.350       .  A
N136       Cu142   2.087       .  S
C137        C138   1.393       .  A
C137        H140   1.082       .  S
C138        C139   1.383       .  A
C138       C1118   1.487       .  S
C139        H141   1.081       .  S
Cu142       N145   2.090       .  S
Cu143       N153   2.050       .  S
Cu144       N146   2.093       .  S
Cu144       N152   2.090       .  S
N145        N146   1.327       .  A
N145        C149   1.349       .  A
N146        C147   1.344       .  A
C147        C148   1.383       .  A
C147        H150   1.082       .  S
C148        C149   1.384       .  A
C149        H151   1.082       .  S
N152        N153   1.319       .  A
N152        C156   1.351       .  A
N153        C154   1.339       .  A
C154        C155   1.380       .  A
C154        H157   1.082       .  S
C155        C156   1.392       .  A
C155       C1053   1.483       .  S
C156        H158   1.082       .  S
O159       Cu167   2.019       .  S
O159        C169   1.280       .  A
O160       Cu167   2.017   1_455  S
O160        C170   1.279       .  A
O161       Cu167   2.006       .  S
O161        C171   1.278       .  A
O162       Cu167   2.013       .  S
O162        C172   1.277       .  A
O163       Cu168   2.027       .  S
O163        C172   1.282       .  A
O164       Cu168   2.024       .  S
O164        C171   1.280       .  A
O165       Cu168   1.983       .  S
O165        C170   1.275   1_655  A
O166       Cu168   1.986       .  S
O166        C169   1.275       .  A
Cu167      Cu168   2.367       .  S
C169       C1025   1.482       .  S
C170        C941   1.477       .  S
C171        C997   1.490       .  S
C172        C969   1.498       .  S
N173        N174   1.319       .  A
N173        C177   1.343       .  A
N173       Cu181   2.061       .  S
N174        C175   1.342       .  A
N174       Cu180   2.063       .  S
C175        C176   1.387       .  A
C175        H178   1.081       .  S
C176        C177   1.385       .  A
C176        C913   1.481       .  S
C177        H179   1.082       .  S
Cu180       N183   2.061   1_655  S
Cu181       N191   2.061       .  S
Cu182       N184   2.113   1_655  S
Cu182       N190   2.112       .  S
N183        N184   1.324       .  A
N183        C187   1.343       .  A
N184        C185   1.352       .  A
C185        C186   1.391       .  A
C185        H188   1.082       .  S
C186        C187   1.378       .  A
C186        C482   1.478       .  S
C187        H189   1.082       .  S
N190        N191   1.322       .  A
N190        C194   1.354       .  A
N191        C192   1.340       .  A
C192        C193   1.381       .  A
C192        H195   1.082       .  S
C193        C194   1.394       .  A
C193        C978   1.488       .  S
C194        H196   1.082       .  S
N197        N198   1.319       .  A
N197        C201   1.343       .  A
N197       Cu205   2.062       .  S
N198        C199   1.341       .  A
N198       Cu204   2.057       .  S
C199        C200   1.385       .  A
C199        H202   1.080       .  S
C200        C201   1.386       .  A
C200        C950   1.481   1_545  S
C201        H203   1.082   1_545  S
Cu204       N207   2.056       .  S
Cu205       N215   2.063       .  S
Cu206       N208   2.106       .  S
Cu206       N214   2.106       .  S
N207        N208   1.323       .  A
N207        C211   1.342       .  A
N208        C209   1.351       .  A
C209        C210   1.391       .  A
C209        H212   1.082       .  S
C210        C211   1.378       .  A
C211        H213   1.082       .  S
N214        N215   1.323       .  A
N214        C218   1.352       .  A
N215        C216   1.341       .  A
C216        C217   1.380       .  A
C216        H219   1.082       .  S
C217        C218   1.393       .  A
C217        C885   1.487       .  S
C218        H220   1.081       .  S
O221       Cu229   2.015       .  S
O221        C231   1.278       .  A
O222       Cu229   2.015       .  S
O222        C232   1.279       .  A
O223       Cu229   2.029   1_554  S
O223        C233   1.280       .  A
O224       Cu229   2.029       .  S
O224        C234   1.281       .  A
O225       Cu230   2.012       .  S
O225        C234   1.278       .  A
O226       Cu230   2.001   1_554  S
O226        C233   1.278       .  A
O227       Cu230   1.998       .  S
O227        C232   1.277       .  A
O228       Cu230   1.996       .  S
O228        C231   1.277       .  A
Cu229      Cu230   2.367       .  S
C231        C857   1.479   1_545  S
C232        C801   1.483       .  S
C233        C838   1.491       .  S
C234        C894   1.496       .  S
O235       Cu243   1.986       .  S
O235        C245   1.275       .  A
O236       Cu243   1.978       .  S
O236        C246   1.275       .  A
O237       Cu243   2.012       .  S
O237        C247   1.279       .  A
O238       Cu243   2.015       .  S
O238        C248   1.278       .  A
O239       Cu244   2.020       .  S
O239        C248   1.280       .  A
O240       Cu244   2.033       .  S
O240        C247   1.280       .  A
O241       Cu244   2.021       .  S
O241        C246   1.279       .  A
O242       Cu244   2.027       .  S
O242        C245   1.280       .  A
Cu243      Cu244   2.367       .  S
C245        C726   1.488       .  S
C246       C1090   1.478       .  S
C247        C754   1.489       .  S
C248        C773   1.490       .  S
O249       Cu257   2.009       .  S
O249        C259   1.278       .  A
O250       Cu257   2.004       .  S
O250        C260   1.277       .  A
O251       Cu257   1.996       .  S
O251        C261   1.277       .  A
O252       Cu257   1.996       .  S
O252        C262   1.277       .  A
O253       Cu258   2.015       .  S
O253        C262   1.278       .  A
O254       Cu258   2.017       .  S
O254        C261   1.279       .  A
O255       Cu258   2.027       .  S
O255        C260   1.280       .  A
O256       Cu258   2.022       .  S
O256        C259   1.280       .  A
Cu257      Cu258   2.366       .  S
C259        C661   1.492       .  S
C260       C1062   1.495       .  S
C261        C922   1.488       .  S
C262        C689   1.478       .  S
N263        N264   1.319       .  A
N263        C267   1.341       .  A
N263       Cu271   2.062       .  S
N264        C265   1.349       .  A
N264       Cu270   2.079       .  S
C265        C266   1.391       .  A
C265        H268   1.080       .  S
C266        C267   1.385       .  A
C266        C698   1.488       .  S
C267        H269   1.082       .  S
Cu270       N273   2.081       .  S
Cu271       N281   2.062       .  S
Cu272       N274   2.108       .  S
Cu272       N280   2.107       .  S
N273        N274   1.326       .  A
N273        C277   1.347       .  A
N274        C275   1.349       .  A
C275        C276   1.388       .  A
C275        H278   1.082       .  S
C276        C277   1.381       .  A
C276        C496   1.479       .  S
C277        H279   1.082       .  S
N280        N281   1.321       .  A
N280        C284   1.354       .  A
N281        C282   1.340       .  A
C282        C283   1.384       .  A
C282        H285   1.082       .  S
C283        C284   1.397       .  A
C283        C745   1.497       .  S
C284        H286   1.081       .  S
N287        N288   1.321       .  A
N287        C291   1.341       .  A
N287       Cu295   2.065       .  S
N288        C289   1.349       .  A
N288       Cu294   2.079       .  S
C289        C290   1.387       .  A
C289        H292   1.082       .  S
C290        C291   1.382       .  A
C290        C717   1.479       .  S
C291        H293   1.082       .  S
Cu294       N297   2.081       .  S
Cu295       N305   2.065       .  S
Cu296       N298   2.096       .  S
Cu296       N304   2.094       .  S
N297        N298   1.326       .  A
N297        C301   1.348       .  A
N298        C299   1.346       .  A
C299        C300   1.386       .  A
C299        H302   1.082       .  S
C300        C301   1.382       .  A
C301        H303   1.082       .  S
N304        N305   1.321       .  A
N304        C308   1.352       .  A
N305        C306   1.342       .  A
C306        C307   1.382       .  A
C306        H309   1.082       .  S
C307        C308   1.390       .  A
C307        C829   1.483       .  S
C308        H310   1.082       .  S
N311        N312   1.318       .  A
N311        C315   1.345       .  A
N311       Cu319   2.061       .  S
N312        C313   1.342       .  A
N312       Cu318   2.063       .  S
C313        C314   1.387       .  A
C313        H316   1.082       .  S
C314        C315   1.386       .  A
C314        C810   1.481       .  S
C315        H317   1.082       .  S
Cu318       N321   2.063       .  S
Cu319       N329   2.062       .  S
Cu320       N322   2.107       .  S
Cu320       N328   2.107       .  S
N321        N322   1.324       .  A
N321        C325   1.341       .  A
N322        C323   1.353       .  A
C323        C324   1.391       .  A
C323        H326   1.082       .  S
C324        C325   1.378       .  A
C325        H327   1.082       .  S
N328        N329   1.323       .  A
N328        C332   1.354       .  A
N329        C330   1.338       .  A
C330        C331   1.381       .  A
C330        H333   1.082       .  S
C331        C332   1.395       .  A
C331        C670   1.491       .  S
C332        H334   1.081       .  S
O335       Cu343   1.986       .  S
O335        C345   1.276       .  A
O336       Cu343   1.984       .  S
O336        C346   1.274       .  A
O337       Cu343   2.028   1_655  S
O337        C347   1.280       .  A
O338       Cu343   2.030       .  S
O338        C348   1.281       .  A
O339       Cu344   2.019       .  S
O339        C348   1.279       .  A
O340       Cu344   2.019   1_655  S
O340        C347   1.279       .  A
O341       Cu344   2.021       .  S
O341        C346   1.280       .  A
O342       Cu344   2.015       .  S
O342        C345   1.279       .  A
Cu343      Cu344   2.367       .  S
C345        C586   1.481   1_556  S
C346        C633   1.482       .  S
C347        C605   1.490       .  S
C348        C558   1.495       .  S
N349        N350   1.319       .  A
N349        C353   1.349       .  A
N349       Cu357   2.076       .  S
N350        C351   1.337       .  A
N350       Cu356   2.043       .  S
C351        C352   1.380       .  A
C351        H354   1.082       .  S
C352        C353   1.390       .  A
C352        C577   1.477       .  S
C353        H355   1.082       .  S
Cu356       N359   2.041       .  S
Cu357       N367   2.078       .  S
Cu358       N360   2.107       .  S
Cu358       N366   2.110       .  S
N359        N360   1.320       .  A
N359        C363   1.338       .  A
N360        C361   1.354       .  A
C361        C362   1.395       .  A
C361        H364   1.082       .  S
C362        C363   1.376       .  A
C362        C506   1.477       .  S
C363        H365   1.082       .  S
N366        N367   1.326       .  A
N366        C370   1.352       .  A
N367        C368   1.344       .  A
C368        C369   1.382       .  A
C368        H371   1.082       .  S
C369        C370   1.390       .  A
C369        C782   1.486       .  S
C370        H372   1.082       .  S
N373        N374   1.318       .  A
N373        C377   1.340       .  A
N373       Cu381   2.053       .  S
N374        C375   1.347       .  A
N374       Cu380   2.069       .  S
C375        C376   1.389       .  A
C375        H378   1.082       .  S
C376        C377   1.385       .  A
C376        C866   1.482       .  S
C377        H379   1.081       .  S
Cu380       N383   2.071       .  S
Cu381       N391   2.053       .  S
Cu382       N384   2.118       .  S
Cu382       N390   2.115       .  S
N383        N384   1.327       .  A
N383        C387   1.345       .  A
N384        C385   1.350       .  A
C385        C386   1.389   1_556  A
C385        H388   1.082   1_556  S
C386        C387   1.378   1_554  A
C387        H389   1.082       .  S
N390        N391   1.322       .  A
N390        C394   1.356       .  A
N391        C392   1.338       .  A
C392        C393   1.378       .  A
C392        H395   1.082       .  S
C393        C394   1.397       .  A
C393        C549   1.489       .  S
C394        H396   1.082       .  S
N397        N398   1.319       .  A
N397        C401   1.340       .  A
N397       Cu405   2.057       .  S
N398        C399   1.347       .  A
N398       Cu404   2.075       .  S
C399        C400   1.389       .  A
C399        H402   1.082       .  S
C400        C401   1.385       .  A
C400        C642   1.483       .  S
C401        H403   1.081       .  S
Cu404       N407   2.076       .  S
Cu405       N415   2.056       .  S
Cu406       N408   2.099       .  S
Cu406       N414   2.097       .  S
N407        N408   1.326       .  A
N407        C411   1.348       .  A
N408        C409   1.345       .  A
C409        C410   1.386       .  A
C409        H412   1.082       .  S
C410        C411   1.381       .  A
C410        C472   1.476       .  S
C411        H413   1.082       .  S
N414        N415   1.320       .  A
N414        C418   1.352       .  A
N415        C416   1.339       .  A
C416        C417   1.383       .  A
C416        H419   1.082       .  S
C417        C418   1.395       .  A
C417       C1006   1.491       .  S
C418        H420   1.081       .  S
N421        N422   1.320       .  A
N421        C425   1.341       .  A
N421       Cu429   2.061       .  S
N422        C423   1.347       .  A
N422       Cu428   2.065       .  S
C423        C424   1.383       .  A
C423        H426   1.082       .  S
C424        C425   1.380       .  A
C424       C1034   1.470       .  S
C425        H427   1.082       .  S
Cu428       N431   2.067       .  S
Cu429       N439   2.061       .  S
Cu430       N432   2.095       .  S
Cu430       N438   2.093       .  S
N431        N432   1.325       .  A
N431        C435   1.344       .  A
N432        C433   1.347       .  A
C433        C434   1.386       .  A
C433        H436   1.082       .  S
C434        C435   1.379       .  A
C435        H437   1.082       .  S
N438        N439   1.321       .  A
N438        C442   1.352       .  A
N439        C440   1.339       .  A
C440        C441   1.382       .  A
C440        H443   1.082       .  S
C441        C442   1.392       .  A
C441       C1174   1.487       .  S
C442        H444   1.081       .  S
N445        N446   1.318       .  A
N445        C449   1.346       .  A
N445       Cu453   2.075       .  S
N446        C447   1.342       .  A
N446       Cu452   2.056       .  S
C447        C448   1.385       .  A
C447        H450   1.082       .  S
C448        C449   1.390       .  A
C448       C1202   1.482       .  S
C449        H451   1.082       .  S
Cu452       N455   2.057       .  S
Cu453       N463   2.077       .  S
Cu454       N456   2.111       .  S
Cu454       N462   2.112       .  S
N455        N456   1.323       .  A
N455        C459   1.341       .  A
N456        C457   1.353       .  A
C457        C458   1.391       .  A
C457        H460   1.082       .  S
C458        C459   1.376       .  A
C459        H461   1.082       .  S
N462        N463   1.325       .  A
N462        C466   1.353       .  A
N463        C464   1.344       .  A
C464        C465   1.381       .  A
C464        H467   1.082       .  S
C465        C466   1.391       .  A
C465        C614   1.486       .  S
C466        H468   1.082       .  S
N469        N470   1.322       .  A
N469        C473   1.341       .  A
N469       Cu477   2.051       .  S
N470        C471   1.352       .  A
N470       Cu476   2.103       .  S
C471        C472   1.391       .  A
C471        H474   1.082       .  S
C472        C473   1.377       .  A
C473        H475   1.082       .  S
Cu476       N479   2.105       .  S
Cu477       N487   2.049       .  S
Cu478       N480   2.076   1_655  S
Cu478       N486   2.075       .  S
N479        N480   1.325       .  A
N479        C483   1.348       .  A
N480        C481   1.347       .  A
C481        C482   1.382       .  A
C481        H484   1.082   1_455  S
C482        C483   1.388       .  A
C483        H485   1.082       .  S
N486        N487   1.320   1_655  A
N486        C490   1.346       .  A
N487        C488   1.341   1_455  A
C488        C489   1.379       .  A
C488        H491   1.082       .  S
C489        C490   1.387       .  A
C489        C521   1.475       .  S
C490        H492   1.082       .  S
N493        N494   1.322       .  A
N493        C497   1.345       .  A
N493       Cu501   2.065       .  S
N494        C495   1.350       .  A
N494       Cu500   2.098       .  S
C495        C496   1.390       .  A
C495        H498   1.082       .  S
C496        C497   1.381       .  A
C497        H499   1.082       .  S
Cu500       N503   2.099       .  S
Cu501       N511   2.058       .  S
Cu502       N504   2.071       .  S
Cu502       N510   2.071       .  S
N503        N504   1.324       .  A
N503        C507   1.344       .  A
N504        C505   1.349       .  A
C505        C506   1.383       .  A
C505        H508   1.082       .  S
C506        C507   1.388       .  A
C507        H509   1.081       .  S
N510        N511   1.318       .  A
N510        C514   1.345       .  A
N511        C512   1.341       .  A
C512        C513   1.389       .  A
C512        H515   1.070       .  S
C513        C514   1.392       .  A
C513        C530   1.493       .  S
C514        H516   1.074       .  S
C517        C518   1.401       .  A
C517        C522   1.400       .  A
C517        H527   1.083       .  S
C518        C519   1.405       .  A
C518        C523   1.473       .  S
C519        C520   1.398       .  A
C519        N524   1.429       .  S
C520        C521   1.404       .  A
C520        H525   1.083       .  S
C521        C522   1.412       .  A
C522        N526   1.430       .  S
C523        C528   1.399       .  A
C523        C532   1.401       .  A
N524        O539   1.262       .  A
N524        O540   1.262       .  A
N526        O537   1.262       .  A
N526        O538   1.262       .  A
C528        C529   1.397       .  A
C528        N533   1.430       .  S
C529        C530   1.413       .  A
C529        H534   1.061       .  S
C530        C531   1.417       .  A
C531        C532   1.404       .  A
C531        N535   1.432       .  S
C532        H536   1.075       .  S
N533        O543   1.261       .  A
N533        O544   1.262       .  A
N535        O541   1.262       .  A
N535        O542   1.262       .  A
C545        C546   1.409       .  A
C545        C550   1.411       .  A
C545        H555   1.083       .  S
C546        C547   1.410       .  A
C546        C551   1.495       .  S
C547        C548   1.400       .  A
C547        N552   1.432       .  S
C548        C549   1.405       .  A
C548        H553   1.083       .  S
C549        C550   1.412       .  A
C550        N554   1.430   1_556  S
C551        C556   1.409       .  A
C551        C560   1.406       .  A
N552        O567   1.262       .  A
N552        O568   1.262       .  A
N554        O565   1.262       .  A
N554        O566   1.262       .  A
C556        C557   1.407       .  A
C556        N561   1.430       .  S
C557        C558   1.409       .  A
C557        H562   1.083       .  S
C558        C559   1.414       .  A
C559        C560   1.404       .  A
C559        N563   1.430       .  S
C560        H564   1.084       .  S
N561        O571   1.262       .  A
N561        O572   1.262       .  A
N563        O569   1.262       .  A
N563        O570   1.262       .  A
C573        C574   1.402       .  A
C573        C578   1.403       .  A
C573        H583   1.084   1_655  S
C574        C575   1.410       .  A
C574        C579   1.475       .  S
C575        C576   1.396       .  A
C575        N580   1.436       .  S
C576        C577   1.404       .  A
C576        H581   1.083       .  S
C577        C578   1.412       .  A
C578        N582   1.431       .  S
C579        C584   1.409       .  A
C579        C588   1.402   1_655  A
N580        O595   1.262       .  A
N580        O596   1.262       .  A
N582        O593   1.262   1_655  A
N582        O594   1.262       .  A
C584        C585   1.398   1_655  A
C584        N589   1.436       .  S
C585        C586   1.407       .  A
C585        H590   1.083   1_554  S
C586        C587   1.412       .  A
C587        C588   1.400       .  A
C587        N591   1.429       .  S
C588        H592   1.084       .  S
N589        O599   1.262       .  A
N589        O600   1.263       .  A
N591        O597   1.262       .  A
N591        O598   1.262       .  A
C601        C602   1.406       .  A
C601        C606   1.404       .  A
C601        H611   1.083       .  S
C602        C603   1.411       .  A
C602        C607   1.495       .  S
C603        C604   1.406       .  A
C603        N608   1.429       .  S
C604        C605   1.407       .  A
C604        H609   1.083       .  S
C605        C606   1.411       .  A
C606        N610   1.428       .  S
C607        C612   1.412       .  A
C607        C616   1.407       .  A
N608        O623   1.262       .  A
N608        O624   1.262       .  A
N610        O621   1.262       .  A
N610        O622   1.261       .  A
C612        C613   1.403       .  A
C612        N617   1.431       .  S
C613        C614   1.404       .  A
C613        H618   1.083       .  S
C614        C615   1.410       .  A
C615        C616   1.407       .  A
C615        N619   1.429       .  S
C616        H620   1.083       .  S
N617        O627   1.262       .  A
N617        O628   1.262       .  A
N619        O625   1.262       .  A
N619        O626   1.262       .  A
C629        C630   1.399       .  A
C629        C634   1.393       .  A
C629        H639   1.084       .  S
C630        C631   1.411       .  A
C630        C635   1.479       .  S
C631        C632   1.405       .  A
C631        N636   1.433       .  S
C632        C633   1.407       .  A
C632        H637   1.083       .  S
C633        C634   1.416       .  A
C634        N638   1.430       .  S
C635        C640   1.411       .  A
C635        C644   1.400       .  A
N636        O651   1.262       .  A
N636        O652   1.262       .  A
N638        O649   1.261       .  A
N638        O650   1.262       .  A
C640        C641   1.404       .  A
C640        N645   1.433       .  S
C641        C642   1.407       .  A
C641        H646   1.083       .  S
C642        C643   1.414       .  A
C643        C644   1.395       .  A
C643        N647   1.432       .  S
C644        H648   1.084       .  S
N645        O655   1.262       .  A
N645        O656   1.262       .  A
N647        O653   1.263       .  A
N647        O654   1.262       .  A
C657        C658   1.403       .  A
C657        C662   1.399       .  A
C657        H667   1.083       .  S
C658        C659   1.410       .  A
C658        C663   1.491       .  S
C659        C660   1.407       .  A
C659        N664   1.430       .  S
C660        C661   1.409       .  A
C660        H665   1.083       .  S
C661        C662   1.415       .  A
C662        N666   1.429       .  S
C663        C668   1.409   1_655  A
C663        C672   1.407   1_655  A
N664        O679   1.262       .  A
N664        O680   1.262       .  A
N666        O677   1.262       .  A
N666        O678   1.262       .  A
C668        C669   1.398       .  A
C668        N673   1.431   1_455  S
C669        C670   1.406       .  A
C669        H674   1.082       .  S
C670        C671   1.414       .  A
C671        C672   1.408       .  A
C671        N675   1.429       .  S
C672        H676   1.083       .  S
N673        O683   1.262       .  A
N673        O684   1.262       .  A
N675        O681   1.262       .  A
N675        O682   1.262       .  A
C685        C686   1.401       .  A
C685        C690   1.404       .  A
C685        H695   1.083       .  S
C686        C687   1.408       .  A
C686        C691   1.478       .  S
C687        C688   1.397       .  A
C687        N692   1.430       .  S
C688        C689   1.403       .  A
C688        H693   1.084       .  S
C689        C690   1.413       .  A
C690        N694   1.429       .  S
C691        C696   1.407   1_556  A
C691        C700   1.400   1_556  A
N692        O707   1.262       .  A
N692        O708   1.262       .  A
N694        O705   1.262       .  A
N694        O706   1.262       .  A
C696        C697   1.398       .  A
C696        N701   1.432   1_554  S
C697        C698   1.406       .  A
C697        H702   1.083       .  S
C698        C699   1.416       .  A
C699        C700   1.404       .  A
C699        N703   1.428       .  S
C700        H704   1.084   1_554  S
N701        O711   1.262       .  A
N701        O712   1.262   1_556  A
N703        O709   1.262       .  A
N703        O710   1.262       .  A
C713        C714   1.402       .  A
C713        C718   1.393       .  A
C713        H723   1.084       .  S
C714        C715   1.415       .  A
C714        C719   1.485       .  S
C715        C716   1.409       .  A
C715        N720   1.434       .  S
C716        C717   1.405       .  A
C716        H721   1.084       .  S
C717        C718   1.409       .  A
C718        N722   1.430       .  S
C719        C724   1.414   1_455  A
C719        C728   1.400   1_455  A
N720        O735   1.262       .  A
N720        O736   1.262       .  A
N722        O733   1.262       .  A
N722        O734   1.262       .  A
C724        C725   1.409       .  A
C724        N729   1.434       .  S
C725        C726   1.409       .  A
C725        H730   1.083       .  S
C726        C727   1.416       .  A
C727        C728   1.392       .  A
C727        N731   1.429       .  S
C728        H732   1.084   1_655  S
N729        O739   1.262   1_655  A
N729        O740   1.262       .  A
N731        O737   1.262       .  A
N731        O738   1.261       .  A
C741        C742   1.407       .  A
C741        C746   1.411       .  A
C741        H751   1.083       .  S
C742        C743   1.410       .  A
C742        C747   1.496       .  S
C743        C744   1.400       .  A
C743        N748   1.432       .  S
C744        C745   1.407       .  A
C744        H749   1.082       .  S
C745        C746   1.416       .  A
C746        N750   1.429       .  S
C747        C752   1.412       .  A
C747        C756   1.405       .  A
N748        O763   1.262       .  A
N748        O764   1.262       .  A
N750        O761   1.262       .  A
N750        O762   1.262       .  A
C752        C753   1.409       .  A
C752        N757   1.428       .  S
C753        C754   1.407       .  A
C753        H758   1.083       .  S
C754        C755   1.412       .  A
C755        C756   1.401       .  A
C755        N759   1.430       .  S
C756        H760   1.083       .  S
N757        O767   1.262       .  A
N757        O768   1.262       .  A
N759        O765   1.262       .  A
N759        O766   1.262       .  A
C769        C770   1.403       .  A
C769        C774   1.401   1_565  A
C769        H779   1.084       .  S
C770        C771   1.414       .  A
C770        C775   1.492       .  S
C771        C772   1.407   1_565  A
C771        N776   1.434       .  S
C772        C773   1.407       .  A
C772        H777   1.083       .  S
C773        C774   1.413       .  A
C774        N778   1.428       .  S
C775        C780   1.417       .  A
C775        C784   1.403       .  A
N776        O791   1.262       .  A
N776        O792   1.262       .  A
N778        O789   1.262       .  A
N778        O790   1.261       .  A
C780        C781   1.409       .  A
C780        N785   1.436       .  S
C781        C782   1.405       .  A
C781        H786   1.083       .  S
C782        C783   1.411       .  A
C783        C784   1.400       .  A
C783        N787   1.430       .  S
C784        H788   1.084       .  S
N785        O795   1.263       .  A
N785        O796   1.262       .  A
N787        O793   1.262       .  A
N787        O794   1.262       .  A
C797        C798   1.401       .  A
C797        C802   1.398       .  A
C797        H807   1.084       .  S
C798        C799   1.409       .  A
C798        C803   1.479       .  S
C799        C800   1.401       .  A
C799        N804   1.431       .  S
C800        C801   1.407       .  A
C800        H805   1.084       .  S
C801        C802   1.413       .  A
C802        N806   1.429       .  S
C803        C808   1.409       .  A
C803        C812   1.401       .  A
N804        O819   1.262       .  A
N804        O820   1.262       .  A
N806        O817   1.262       .  A
N806        O818   1.262       .  A
C808        C809   1.404       .  A
C808        N813   1.432       .  S
C809        C810   1.407       .  A
C809        H814   1.083       .  S
C810        C811   1.412       .  A
C811        C812   1.397       .  A
C811        N815   1.432       .  S
C812        H816   1.084       .  S
N813        O823   1.262       .  A
N813        O824   1.262       .  A
N815        O821   1.262       .  A
N815        O822   1.262       .  A
C825        C826   1.400       .  A
C825        C830   1.399       .  A
C825        H835   1.084       .  S
C826        C827   1.410       .  A
C826        C831   1.484       .  S
C827        C828   1.408       .  A
C827        N832   1.429       .  S
C828        C829   1.406       .  A
C828        H833   1.083       .  S
C829        C830   1.412       .  A
C830        N834   1.431       .  S
C831        C836   1.407       .  A
C831        C840   1.403       .  A
N832        O847   1.262       .  A
N832        O848   1.262       .  A
N834        O845   1.262       .  A
N834        O846   1.262       .  A
C836        C837   1.399       .  A
C836        N841   1.430       .  S
C837        C838   1.407       .  A
C837        H842   1.083       .  S
C838        C839   1.416       .  A
C839        C840   1.407       .  A
C839        N843   1.429       .  S
C840        H844   1.083       .  S
N841        O851   1.262       .  A
N841        O852   1.262       .  A
N843        O849   1.262       .  A
N843        O850   1.262       .  A
C853        C854   1.399   1_554  A
C853        C858   1.396       .  A
C853        H863   1.084       .  S
C854        C855   1.408       .  A
C854        C859   1.474       .  S
C855        C856   1.403       .  A
C855        N860   1.430       .  S
C856        C857   1.406       .  A
C856        H861   1.083       .  S
C857        C858   1.413   1_556  A
C858        N862   1.430       .  S
C859        C864   1.406   1_556  A
C859        C868   1.398       .  A
N860        O875   1.262       .  A
N860        O876   1.262       .  A
N862        O873   1.262       .  A
N862        O874   1.262       .  A
C864        C865   1.402   1_554  A
C864        N869   1.429       .  S
C865        C866   1.407       .  A
C865        H870   1.083   1_556  S
C866        C867   1.415       .  A
C867        C868   1.397       .  A
C867        N871   1.432       .  S
C868        H872   1.084       .  S
N869        O879   1.262       .  A
N869        O880   1.261       .  A
N871        O877   1.262       .  A
N871        O878   1.262       .  A
C881        C882   1.404       .  A
C881        C886   1.408       .  A
C881        H891   1.083       .  S
C882        C883   1.407       .  A
C882        C887   1.486       .  S
C883        C884   1.401       .  A
C883        N888   1.430   1_545  S
C884        C885   1.406       .  A
C884        H889   1.083       .  S
C885        C886   1.414       .  A
C886        N890   1.431       .  S
C887        C892   1.406       .  A
C887        C896   1.401       .  A
N888        O903   1.262       .  A
N888        O904   1.262       .  A
N890        O901   1.262       .  A
N890        O902   1.262       .  A
C892        C893   1.406       .  A
C892        N897   1.428       .  S
C893        C894   1.410       .  A
C893        H898   1.083       .  S
C894        C895   1.418       .  A
C895        C896   1.402       .  A
C895        N899   1.430       .  S
C896        H900   1.084       .  S
N897        O907   1.262       .  A
N897        O908   1.262       .  A
N899        O905   1.262       .  A
N899        O906   1.262       .  A
C909        C910   1.398       .  A
C909        C914   1.397       .  A
C909        H919   1.084       .  S
C910        C911   1.404       .  A
C910        C915   1.471       .  S
C911        C912   1.401       .  A
C911        N916   1.428       .  S
C912        C913   1.408       .  A
C912        H917   1.083       .  S
C913        C914   1.414       .  A
C914        N918   1.432       .  S
C915        C920   1.404       .  A
C915        C924   1.398       .  A
N916        O931   1.262       .  A
N916        O932   1.262       .  A
N918        O929   1.262       .  A
N918        O930   1.262       .  A
C920        C921   1.398       .  A
C920        N925   1.429       .  S
C921        C922   1.410       .  A
C921        H926   1.083       .  S
C922        C923   1.417       .  A
C923        C924   1.400       .  A
C923        N927   1.428       .  S
C924        H928   1.084       .  S
N925        O935   1.262       .  A
N925        O936   1.262       .  A
N927        O933   1.262       .  A
N927        O934   1.262       .  A
C937        C938   1.402       .  A
C937        C942   1.399       .  A
C937        H947   1.084       .  S
C938        C939   1.410       .  A
C938        C943   1.474       .  S
C939        C940   1.398       .  A
C939        N944   1.435       .  S
C940        C941   1.405       .  A
C940        H945   1.084       .  S
C941        C942   1.410       .  A
C942        N946   1.429       .  S
C943        C948   1.408       .  A
C943        C952   1.398       .  A
N944        O959   1.263       .  A
N944        O960   1.262       .  A
N946        O957   1.262       .  A
N946        O958   1.262       .  A
C948        C949   1.400       .  A
C948        N953   1.432       .  S
C949        C950   1.406       .  A
C949        H954   1.083       .  S
C950        C951   1.416       .  A
C951        C952   1.396       .  A
C951        N955   1.431   1_565  S
C952        H956   1.084       .  S
N953        O963   1.262       .  A
N953        O964   1.262       .  A
N955        O961   1.262       .  A
N955        O962   1.262       .  A
C965        C966   1.403       .  A
C965        C970   1.406       .  A
C965        H975   1.083       .  S
C966        C967   1.412       .  A
C966        C971   1.494       .  S
C967        C968   1.403       .  A
C967        N972   1.432       .  S
C968        C969   1.407   1_545  A
C968        H973   1.083       .  S
C969        C970   1.419   1_565  A
C970        N974   1.430   1_545  S
C971        C976   1.414       .  A
C971        C980   1.403       .  A
N972        O987   1.262       .  A
N972        O988   1.262       .  A
N974        O985   1.262   1_655  A
N974        O986   1.262       .  A
C976        C977   1.408       .  A
C976        N981   1.430   1_655  S
C977        C978   1.405       .  A
C977        H982   1.083   1_655  S
C978        C979   1.414       .  A
C979        C980   1.403       .  A
C979        N983   1.434       .  S
C980        H984   1.083       .  S
N981        O991   1.262       .  A
N981        O992   1.262       .  A
N983        O989   1.262       .  A
N983        O990   1.262       .  A
C993        C994   1.405   1_655  A
C993        C998   1.403       .  A
C993       H1003   1.083       .  S
C994        C995   1.408       .  A
C994        C999   1.488       .  S
C995        C996   1.403   1_455  A
C995       N1000   1.430       .  S
C996        C997   1.408       .  A
C996       H1001   1.083       .  S
C997        C998   1.415       .  A
C998       N1002   1.429       .  S
C999       C1004   1.407       .  A
C999       C1008   1.405   1_455  A
N1000      O1015   1.262   1_455  A
N1000      O1016   1.262       .  A
N1002      O1013   1.262   1_655  A
N1002      O1014   1.262       .  A
C1004      C1005   1.398       .  A
C1004      N1009   1.430       .  S
C1005      C1006   1.407       .  A
C1005      H1010   1.082       .  S
C1006      C1007   1.415       .  A
C1007      C1008   1.407   1_455  A
C1007      N1011   1.430   1_455  S
C1008      H1012   1.083       .  S
N1009      O1019   1.262       .  A
N1009      O1020   1.262       .  A
N1011      O1017   1.262       .  A
N1011      O1018   1.262       .  A
C1021      C1022   1.402       .  A
C1021      C1026   1.394       .  A
C1021      H1031   1.084       .  S
C1022      C1023   1.410       .  A
C1022      C1027   1.485       .  S
C1023      C1024   1.403       .  A
C1023      N1028   1.429       .  S
C1024      C1025   1.406       .  A
C1024      H1029   1.083       .  S
C1025      C1026   1.414       .  A
C1026      N1030   1.430       .  S
C1027      C1032   1.413       .  A
C1027      C1036   1.406       .  A
N1028      O1043   1.262       .  A
N1028      O1044   1.262       .  A
N1030      O1041   1.262       .  A
N1030      O1042   1.262       .  A
C1032      C1033   1.398       .  A
C1032      N1037   1.433       .  S
C1033      C1034   1.400       .  A
C1033      H1038   1.084       .  S
C1034      C1035   1.407       .  A
C1035      C1036   1.401       .  A
C1035      N1039   1.429       .  S
C1036      H1040   1.083       .  S
N1037      O1047   1.262       .  A
N1037      O1048   1.262       .  A
N1039      O1045   1.262       .  A
N1039      O1046   1.262       .  A
C1049      C1050   1.405       .  A
C1049      C1054   1.409       .  A
C1049      H1059   1.083       .  S
C1050      C1051   1.407       .  A
C1050      C1055   1.484       .  S
C1051      C1052   1.397       .  A
C1051      N1056   1.431       .  S
C1052      C1053   1.404       .  A
C1052      H1057   1.083       .  S
C1053      C1054   1.413       .  A
C1054      N1058   1.432       .  S
C1055      C1060   1.406       .  A
C1055      C1064   1.401       .  A
N1056      O1071   1.262       .  A
N1056      O1072   1.262       .  A
N1058      O1069   1.262       .  A
N1058      O1070   1.263       .  A
C1060      C1061   1.405       .  A
C1060      N1065   1.428       .  S
C1061      C1062   1.411       .  A
C1061      H1066   1.083       .  S
C1062      C1063   1.419       .  A
C1063      C1064   1.400       .  A
C1063      N1067   1.430       .  S
C1064      H1068   1.084       .  S
N1065      O1075   1.262       .  A
N1065      O1076   1.262       .  A
N1067      O1073   1.262       .  A
N1067      O1074   1.262       .  A
C1077      C1078   1.402       .  A
C1077      C1082   1.401       .  A
C1077      H1087   1.083       .  S
C1078      C1079   1.407       .  A
C1078      C1083   1.477       .  S
C1079      C1080   1.397       .  A
C1079      N1084   1.431       .  S
C1080      C1081   1.405       .  A
C1080      H1085   1.083   1_545  S
C1081      C1082   1.413       .  A
C1082      N1086   1.430       .  S
C1083      C1088   1.406       .  A
C1083      C1092   1.403       .  A
N1084      O1099   1.262   1_545  A
N1084      O1100   1.262       .  A
N1086      O1097   1.262       .  A
N1086      O1098   1.262       .  A
C1088      C1089   1.397       .  A
C1088      N1093   1.432       .  S
C1089      C1090   1.406       .  A
C1089      H1094   1.084       .  S
C1090      C1091   1.413       .  A
C1091      C1092   1.401       .  A
C1091      N1095   1.430       .  S
C1092      H1096   1.084       .  S
N1093      O1103   1.262       .  A
N1093      O1104   1.262       .  A
N1095      O1101   1.262       .  A
N1095      O1102   1.262       .  A
C1105      C1106   1.402       .  A
C1105      C1110   1.404       .  A
C1105      H1115   1.083       .  S
C1106      C1107   1.407       .  A
C1106      C1111   1.480       .  S
C1107      C1108   1.397       .  A
C1107      N1112   1.430       .  S
C1108      C1109   1.404       .  A
C1108      H1113   1.083       .  S
C1109      C1110   1.414       .  A
C1110      N1114   1.429       .  S
C1111      C1116   1.407       .  A
C1111      C1120   1.399       .  A
N1112      O1127   1.262       .  A
N1112      O1128   1.262       .  A
N1114      O1125   1.262       .  A
N1114      O1126   1.262       .  A
C1116      C1117   1.405       .  A
C1116      N1121   1.429       .  S
C1117      C1118   1.408       .  A
C1117      H1122   1.083       .  S
C1118      C1119   1.417       .  A
C1119      C1120   1.397       .  A
C1119      N1123   1.434       .  S
C1120      H1124   1.084       .  S
N1121      O1131   1.262       .  A
N1121      O1132   1.262       .  A
N1123      O1129   1.262       .  A
N1123      O1130   1.263       .  A
C1133      C1134   1.401       .  A
C1133      C1138   1.404       .  A
C1133      H1143   1.084       .  S
C1134      C1135   1.411       .  A
C1134      C1139   1.484       .  S
C1135      C1136   1.400       .  A
C1135      N1140   1.434       .  S
C1136      C1137   1.407       .  A
C1136      H1141   1.083       .  S
C1137      C1138   1.418       .  A
C1138      N1142   1.429       .  S
C1139      C1144   1.412       .  A
C1139      C1148   1.403       .  A
N1140      O1155   1.262       .  A
N1140      O1156   1.262       .  A
N1142      O1153   1.262       .  A
N1142      O1154   1.262       .  A
C1144      C1145   1.401       .  A
C1144      N1149   1.436   1_565  S
C1145      C1146   1.403       .  A
C1145      H1150   1.083       .  S
C1146      C1147   1.412       .  A
C1147      C1148   1.404       .  A
C1147      N1151   1.430       .  S
C1148      H1152   1.084       .  S
N1149      O1159   1.263       .  A
N1149      O1160   1.262       .  A
N1151      O1157   1.262       .  A
N1151      O1158   1.262   1_556  A
C1161      C1162   1.405       .  A
C1161      C1166   1.398       .  A
C1161      H1171   1.083       .  S
C1162      C1163   1.412       .  A
C1162      C1167   1.489       .  S
C1163      C1164   1.407       .  A
C1163      N1168   1.431       .  S
C1164      C1165   1.404       .  A
C1164      H1169   1.083       .  S
C1165      C1166   1.408       .  A
C1166      N1170   1.430       .  S
C1167      C1172   1.409       .  A
C1167      C1176   1.406       .  A
N1168      O1183   1.262       .  A
N1168      O1184   1.262       .  A
N1170      O1181   1.262       .  A
N1170      O1182   1.262       .  A
C1172      C1173   1.398       .  A
C1172      N1177   1.432       .  S
C1173      C1174   1.405       .  A
C1173      H1178   1.083       .  S
C1174      C1175   1.413       .  A
C1175      C1176   1.407       .  A
C1175      N1179   1.430       .  S
C1176      H1180   1.083       .  S
N1177      O1187   1.262       .  A
N1177      O1188   1.262       .  A
N1179      O1185   1.262       .  A
N1179      O1186   1.262       .  A
C1189      C1190   1.402       .  A
C1189      C1194   1.398       .  A
C1189      H1199   1.084       .  S
C1190      C1191   1.411       .  A
C1190      C1195   1.478       .  S
C1191      C1192   1.401       .  A
C1191      N1196   1.433       .  S
C1192      C1193   1.403       .  A
C1192      H1197   1.083       .  S
C1193      C1194   1.408       .  A
C1194      N1198   1.429       .  S
C1195      C1200   1.411       .  A
C1195      C1204   1.400       .  A
N1196      O1211   1.262       .  A
N1196      O1212   1.262       .  A
N1198      O1209   1.262       .  A
N1198      O1210   1.262       .  A
C1200      C1201   1.401       .  A
C1200      N1205   1.434       .  S
C1201      C1202   1.405       .  A
C1201      H1206   1.083       .  S
C1202      C1203   1.413       .  A
C1203      C1204   1.399       .  A
C1203      N1207   1.431       .  S
C1204      H1208   1.084       .  S
N1205      O1215   1.262       .  A
N1205      O1216   1.262       .  A
N1207      O1213   1.262       .  A
N1207      O1214   1.262       .  A
C1217      C1218   1.405       .  A
C1217      C1222   1.400       .  A
C1217      H1227   1.083       .  S
C1218      C1219   1.410       .  A
C1218      C1223   1.489       .  S
C1219      C1220   1.401       .  A
C1219      N1224   1.433       .  S
C1220      C1221   1.410       .  A
C1220      H1225   1.082       .  S
C1221      C1222   1.415       .  A
C1222      N1226   1.427       .  S
C1223      C1228   1.415   1_565  A
C1223      C1232   1.406       .  A
N1224      O1239   1.262       .  A
N1224      O1240   1.262       .  A
N1226      O1237   1.262       .  A
N1226      O1238   1.262       .  A
C1228      C1229   1.399       .  A
C1228      N1233   1.434       .  S
C1229      C1230   1.399       .  A
C1229      H1234   1.083       .  S
C1230      C1231   1.409   1_545  A
C1231      C1232   1.401       .  A
C1231      N1235   1.431       .  S
C1232      H1236   1.083       .  S
N1233      O1243   1.262       .  A
N1233      O1244   1.262   1_545  A
N1235      O1241   1.262       .  A
N1235      O1242   1.262   1_565  A
C1245      C1246   1.400       .  A
C1245      C1250   1.400       .  A
C1245      H1255   1.084       .  S
C1246      C1247   1.408       .  A
C1246      C1251   1.476       .  S
C1247      C1248   1.400       .  A
C1247      N1252   1.432       .  S
C1248      C1249   1.406       .  A
C1248      H1253   1.084       .  S
C1249      C1250   1.414       .  A
C1250      N1254   1.428       .  S
C1251      C1256   1.408       .  A
C1251      C1260   1.405       .  A
N1252      O1267   1.262       .  A
N1252      O1268   1.262       .  A
N1254      O1265   1.262       .  A
N1254      O1266   1.262       .  A
C1256      C1257   1.398       .  A
C1256      N1261   1.432       .  S
C1257      C1258   1.404       .  A
C1257      H1262   1.084       .  S
C1258      C1259   1.404       .  A
C1259      C1260   1.401       .  A
C1259      N1263   1.428       .  S
C1260      H1264   1.084       .  S
N1261      O1271   1.262       .  A
N1261      O1272   1.262       .  A
N1263      O1269   1.262       .  A
N1263      O1270   1.262       .  A
