geometry optimzed in LAMMPS
_audit_creation_date              2020-11-30 
_audit_creation_method            'lammps2cif' 
_symmetry_space_group_name_H-M    'P1' 
_symmetry_Int_Tables_number       1 
_symmetry_cell_setting            triclinic 
loop_ 
_symmetry_equiv_pos_as_xyz 
  x,y,z 
_cell_length_a                    38.99073736 
_cell_length_b                    31.19823571131714 
_cell_length_c                    36.33129320660002 
_cell_angle_alpha                 89.48822014301734 
_cell_angle_beta                  102.91099390382223 
_cell_angle_gamma                 90.13076391419442 
loop_ 
_atom_site_label 
_atom_site_type_symbol 
_atom_site_fract_x 
_atom_site_fract_y 
_atom_site_fract_z 
_atom_site_charge 
O1          O  0.05165335  0.95633894  0.01550492    -0.73000
O2          O  0.49682548  0.06374437  0.98073437    -0.74000
O3          O  0.03176554  0.02962003  0.05175699    -0.62600
O4          O  0.01680050  0.99102772  0.94406986    -0.71000
O5          O  0.46679139  0.95980138  0.94848555    -0.70500
O6          O  0.48366374  0.99525207  0.05764464    -0.61800
O7          O  0.44783294  0.03139514  0.98715570    -0.74300
O8          O  0.00187803  0.92304991  0.01831360    -0.73100
Cu9        Cu  0.02597863  0.01130813  0.99785449     1.04600
Cu10       Cu  0.47334894  0.97624403  0.00313959     1.04300
C11         C  0.03520213  0.92263850  0.02202597     0.93200
C12         C  0.46361321  0.06450443  0.97821192     0.92400
C13         C  0.01042155  0.01834676  0.07206045     0.84500
C14         C  0.48939311  0.96942412  0.92910785     0.90800
C15         C  0.33744058  0.34350452  0.90134212     0.03100
C16         C  0.33384784  0.35631440  0.86352010    -0.13100
C17         C  0.31821095  0.39580662  0.85059753     0.00600
C18         C  0.30592026  0.42228573  0.87597156    -0.11600
C19         C  0.31020791  0.41034808  0.91407667     0.03100
C20         C  0.32597623  0.37085281  0.92655482    -0.11000
H21         H  0.34308010  0.33539751  0.84412058     0.08700
H22         H  0.29236413  0.45185455  0.86591274     0.06200
H23         H  0.32887063  0.36108978  0.95581033     0.06100
C24         C  0.16704507  0.64850696  0.10149048     0.03100
C25         C  0.18263797  0.62534469  0.07670385    -0.13100
C26         C  0.20187267  0.58798385  0.08896259     0.00600
C27         C  0.20671739  0.57499669  0.12691235    -0.11600
C28         C  0.19180045  0.59846922  0.15220396     0.03100
C29         C  0.17176774  0.63510939  0.13923425    -0.11000
H30         H  0.17963735  0.63635616  0.04777662     0.08700
H31         H  0.22205388  0.54655400  0.13679374     0.06200
H32         H  0.16062178  0.65382096  0.15869164     0.06100
O33         O  0.26005162  0.57000790  0.51776941    -0.73000
O34         O  0.20026032  0.46589580  0.49014535    -0.74000
O35         O  0.23893826  0.50145160  0.55935942    -0.62600
O36         O  0.22217727  0.53412689  0.44908688    -0.71000
O37         O  0.26898561  0.49643386  0.44392397    -0.70500
O38         O  0.28647067  0.46551631  0.55386676    -0.61800
O39         O  0.24753773  0.42831001  0.48607645    -0.74300
O40         O  0.30752106  0.53407488  0.51203500    -0.73100
Cu41       Cu  0.22872153  0.51911422  0.50428488     1.04600
Cu42       Cu  0.27926604  0.47975044  0.49880901     1.04300
C43         C  0.29305897  0.56885871  0.51918646     0.93200
C44         C  0.21435687  0.43072257  0.48360336     0.92400
C45         C  0.26604390  0.47906589  0.57422230     0.84500
C46         C  0.24267425  0.51991922  0.42898770     0.90800
C47         C  0.06450534  0.17313507  0.39041783     0.03100
C48         C  0.05319177  0.14664573  0.41685338    -0.13100
C49         C  0.03629718  0.10755193  0.40569699     0.00600
C50         C  0.02988633  0.09572840  0.36759102    -0.11600
C51         C  0.04080782  0.12195599  0.34077569     0.03100
C52         C  0.05852173  0.16042819  0.35249135    -0.11000
H53         H  0.05812354  0.15608897  0.44621108     0.08700
H54         H  0.01674595  0.06565302  0.35884270     0.06200
H55         H  0.06799305  0.18026608  0.33221361     0.06100
C56         C  0.42328531  0.84364527  0.60160106     0.03100
C57         C  0.43470449  0.87157467  0.57624374    -0.13100
C58         C  0.45140186  0.91043286  0.58880878     0.00600
C59         C  0.45723599  0.92076361  0.62729239    -0.11600
C60         C  0.44607338  0.89297431  0.65288131     0.03100
C61         C  0.42944462  0.85435006  0.63995254    -0.11000
H62         H  0.43032097  0.86321780  0.54665988     0.08700
H63         H  0.47064478  0.95028459  0.63740341     0.06200
H64         H  0.42066972  0.83296939  0.65968136     0.06100
C65         C  0.46629002  0.00979497  0.53259629    -0.11400
C66         C  0.48858170  0.99361337  0.51063166     0.15100
C67         C  0.49829113  0.94992054  0.51420731     0.02000
C68         C  0.48592366  0.92368423  0.53994068    -0.15800
C69         C  0.46331951  0.93973739  0.56172998    -0.10600
C70         C  0.45301049  0.98328231  0.55740767     0.08700
C71         C  0.00067228  0.02302740  0.48385917     0.09800
S72         S  0.02605542  0.92561748  0.48660611    -0.24900
H73         H  0.49391511  0.89036616  0.54291444     0.20000
S74         S  0.42173221  0.00658571  0.58119815    -0.30600
H75         H  0.45847678  0.04317674  0.52963814     0.10400
C76         C  0.47717253  0.03840194  0.45115579     0.03600
C77         C  0.48950064  0.06618967  0.42645605    -0.12900
C78         C  0.02497182  0.07870563  0.43345791    -0.08600
C79         C  0.04861082  0.06265358  0.46603165     0.07000
C80         C  0.03609344  0.03557618  0.49109050    -0.13700
S81         S  0.43171046  0.02143790  0.44016982    -0.30600
H82         H  0.47146201  0.07819495  0.40137737     0.11300
S83         S  0.09518240  0.07374338  0.47634546    -0.27700
H84         H  0.05424320  0.02343120  0.51607291     0.08500
H85         H  0.40131841  0.96926467  0.58062419     0.26900
H86         H  0.42087806  0.04662783  0.40733909     0.21700
H87         H  0.09816782  0.07467041  0.43847672     0.27000
H88         H  0.01509336  0.95163230  0.45434866     0.15900
C89         C  0.35758462  0.76266080  0.54868088    -0.11400
C90         C  0.37155469  0.72414977  0.56584593     0.15100
C91         C  0.40262167  0.72507290  0.59455570     0.02000
C92         C  0.41919451  0.76434584  0.60509843    -0.15800
C93         C  0.40498640  0.80304789  0.58836716    -0.10600
C94         C  0.37350722  0.80206574  0.56006449     0.08700
C95         C  0.35204228  0.68396595  0.55438105     0.09800
S96         S  0.42225429  0.67755165  0.61911691    -0.24900
H97         H  0.44321919  0.76481135  0.62694150     0.20000
S98         S  0.35129801  0.84983996  0.53879491    -0.30600
H99         H  0.33339697  0.76206387  0.52706483     0.10400
C100        C  0.32178920  0.67374359  0.56772770     0.03600
C101        C  0.30334572  0.63596907  0.55578053    -0.12900
C102        C  0.31419591  0.60815665  0.53032491    -0.08600
C103        C  0.34441652  0.61890244  0.51660350     0.07000
C104        C  0.36327202  0.65631171  0.52922788    -0.13700
S105        S  0.30704494  0.70853780  0.60058341    -0.30600
H106        H  0.28042270  0.62787436  0.56660718     0.11300
S107        S  0.35905075  0.58792789  0.48139449    -0.27700
H108        H  0.38630793  0.66457158  0.51860310     0.08500
H109        H  0.36073856  0.87535937  0.57121258     0.26900
H110        H  0.27706614  0.68469238  0.60340112     0.21700
H111        H  0.32495290  0.58013607  0.45970511     0.27000
H112        H  0.39108506  0.65375882  0.61564174     0.15900
C113        C  0.17841603  0.31709691  0.47366500    -0.11400
C114        C  0.14910931  0.32221238  0.44346223     0.15100
C115        C  0.14090840  0.36343180  0.42756357     0.02000
C116        C  0.16186695  0.39842326  0.44233344    -0.15800
C117        C  0.19172906  0.39310210  0.47180434    -0.10600
C118        C  0.19983349  0.35197387  0.48788710     0.08700
C119        C  0.12743419  0.28411501  0.42945440     0.09800
S120        S  0.10497658  0.37327109  0.38753443    -0.24900
H121        H  0.15565197  0.42984028  0.42965034     0.20000
S122        S  0.23644231  0.34214088  0.52716665    -0.30600
H123        H  0.18456200  0.28565755  0.48630200     0.10400
C124        C  0.14095196  0.25050726  0.41119753     0.03600
C125        C  0.11954611  0.21516947  0.39812009    -0.12900
C126        C  0.08486231  0.21258858  0.40290110    -0.08600
C127        C  0.07117418  0.24664369  0.42068052     0.07000
C128        C  0.09269421  0.28173324  0.43409895    -0.13700
S129        S  0.18521475  0.25299135  0.40376252    -0.30600
H130        H  0.12994832  0.18905096  0.38446486     0.11300
S131        S  0.02635116  0.24779924  0.42620564    -0.27700
H132        H  0.08217615  0.30768890  0.44788248     0.08500
H133        H  0.23474952  0.38197139  0.54452777     0.26900
H134        H  0.18520538  0.21244566  0.38714159     0.21700
H135        H  0.01204381  0.22442145  0.39343312     0.27000
H136        H  0.10646398  0.33328623  0.37041180     0.15900
C137        C  0.18086968  0.56897509  0.25085521    -0.11400
C138        C  0.21604104  0.56850669  0.27103203     0.15100
C139        C  0.24305099  0.57696465  0.25178096     0.02000
C140        C  0.23433953  0.58540803  0.21291484    -0.15800
C141        C  0.19914674  0.58627595  0.19270981    -0.10600
C142        C  0.17212696  0.57746033  0.21196826     0.08700
C143        C  0.22364010  0.55689671  0.31165624     0.09800
S144        S  0.28901471  0.57802105  0.27515974    -0.24900
H145        H  0.25519379  0.59244196  0.19842114     0.20000
S146        S  0.12621370  0.57511481  0.18852134    -0.30600
H147        H  0.16010935  0.56186230  0.26545839     0.10400
C148        C  0.21662310  0.58544208  0.33887685     0.03600
C149        C  0.22287690  0.57241544  0.37686634    -0.12900
C150        C  0.23597919  0.53132232  0.38829743    -0.08600
C151        C  0.24263949  0.50264930  0.36068242     0.07000
C152        C  0.23687145  0.51597028  0.32289710    -0.13700
S153        S  0.20057738  0.63884411  0.32531761    -0.30600
H154        H  0.21795863  0.59455461  0.39789361     0.11300
S155        S  0.25636744  0.44791299  0.37121167    -0.27700
H156        H  0.24177260  0.49380983  0.30182597     0.08500
H157        H  0.13161304  0.56154585  0.15345106     0.26900
H158        H  0.19829813  0.65234198  0.36153327     0.23300
H159        H  0.23449813  0.44089127  0.39670195     0.27000
H160        H  0.28417882  0.59062301  0.31069194     0.15900
C161        C  0.29089795  0.50620465  0.97052831    -0.11400
C162        C  0.26656735  0.48832684  0.98945799     0.15100
C163        C  0.25723178  0.44470590  0.98400949     0.02000
C164        C  0.27184300  0.42021075  0.95932630    -0.15800
C165        C  0.29636560  0.43791324  0.94047339    -0.10600
C166        C  0.30634830  0.48135521  0.94670519     0.08700
C167        C  0.25083058  0.51594018  0.01421769     0.09800
S168        S  0.22693530  0.41836138  0.00778280    -0.24900
H169        H  0.26401448  0.38703378  0.95477585     0.20000
S170        S  0.33943937  0.50671678  0.92635628    -0.30600
H171        H  0.29824658  0.53955603  0.97479838     0.10400
C172        C  0.27077216  0.53083860  0.04899109     0.03600
C173        C  0.25414951  0.55445316  0.07267808    -0.12900
C174        C  0.21790764  0.56317361  0.06250621    -0.08600
C175        C  0.19807452  0.54832128  0.02743434     0.07000
C176        C  0.21486102  0.52554947  0.00352317    -0.13700
S177        S  0.31706983  0.51843088  0.06388494    -0.30600
H178        H  0.26937192  0.56611896  0.09935093     0.11300
S179        S  0.15108043  0.55519007  0.01227823    -0.27700
H180        H  0.19953078  0.51388115  0.97686389     0.08500
H181        H  0.35968212  0.46956325  0.92588965     0.26900
H182        H  0.32283950  0.53883923  0.09910687     0.21700
H183        H  0.14421818  0.55162125  0.04857522     0.27000
H184        H  0.23598228  0.44221407  0.04121354     0.15900
C185        C  0.31500330  0.45129324  0.67450035    -0.11400
C186        C  0.28712699  0.44444003  0.69238523     0.15100
C187        C  0.25224831  0.45142686  0.67180768     0.02000
C188        C  0.24605657  0.46275472  0.63343858    -0.15800
C189        C  0.27398003  0.46873666  0.61523085    -0.10600
C190        C  0.30894163  0.46413739  0.63663030     0.08700
C191        C  0.29561839  0.43091155  0.73266678     0.09800
S192        S  0.21463105  0.44689304  0.69287934    -0.24900
H193        H  0.21915251  0.46686871  0.61766639     0.20000
S194        S  0.34710235  0.47634398  0.61811976    -0.30600
H195        H  0.34186423  0.44717102  0.69043472     0.10400
C196        C  0.28702708  0.38974745  0.74419069     0.03600
C197        C  0.29503038  0.37893922  0.78274480    -0.12900
C198        C  0.31235972  0.40801476  0.81001883    -0.08600
C199        C  0.32286475  0.44827164  0.79812564     0.07000
C200        C  0.31400159  0.45943775  0.75967398    -0.13700
S201        S  0.26685069  0.35052429  0.70978031    -0.30600
H202        H  0.28744336  0.34788184  0.79179239     0.11300
S203        S  0.34944372  0.48450754  0.83126920    -0.27700
H204        H  0.32161386  0.49038632  0.75040585     0.08500
H205        H  0.33221009  0.51301116  0.59791883     0.26900
H206        H  0.26625117  0.31665683  0.73545235     0.21700
H207        H  0.34889228  0.51905998  0.80600488     0.27000
H208        H  0.23221625  0.45883383  0.72946334     0.15900
C209        C  0.05017980  0.06652103  0.16918502    -0.11400
C210        C  0.02251030  0.06091996  0.18753234     0.15100
C211        C  0.49132448  0.04071514  0.16829109     0.02000
C212        C  0.48836982  0.02715590  0.13102828    -0.15800
C213        C  0.01607471  0.03252192  0.11223293    -0.10600
C214        C  0.04763472  0.05225253  0.13222282     0.08700
C215        C  0.02719892  0.07643667  0.22676118     0.09800
S216        S  0.45405701  0.03191426  0.18929807    -0.24900
H217        H  0.46394937  0.01236492  0.11659868     0.20000
S218        S  0.08607269  0.06004451  0.11314219    -0.30600
H219        H  0.07425546  0.08175767  0.18407571     0.10400
C220        C  0.04431280  0.05110729  0.25767146     0.03600
C221        C  0.04839339  0.06686825  0.29441423    -0.12900
C222        C  0.03543710  0.10739819  0.30106917    -0.08600
C223        C  0.01783314  0.13251077  0.26991855     0.07000
C224        C  0.01431799  0.11697031  0.23316354    -0.13700
S225        S  0.06043634  0.99837941  0.25029036    -0.30600
H226        H  0.06196616  0.04764901  0.31818073     0.11300
S227        S  0.99810860  0.18370501  0.27508450    -0.27700
H228        H  0.00089140  0.13627826  0.20935415     0.08500
H229        H  0.08675322  0.01744428  0.10119721     0.26900
H230        H  0.07029145  0.98632337  0.28860794     0.21700
H231        H  0.98880717  0.17363457  0.30938314     0.27000
H232        H  0.47272106  0.02984163  0.22709052     0.15900
C233        C  0.44305425  0.94947485  0.74441118    -0.11400
C234        C  0.46664097  0.92453733  0.77084697     0.15100
C235        C  0.48280388  0.88865521  0.75830850     0.02000
C236        C  0.47507339  0.87865371  0.71982480    -0.15800
C237        C  0.45192776  0.90402995  0.69333031    -0.10600
C238        C  0.43536704  0.93950638  0.70594450     0.08700
C239        C  0.47289498  0.93606848  0.81132828     0.09800
S240        S  0.01379922  0.85471363  0.78976586    -0.24900
H241        H  0.48777539  0.85133954  0.71031562     0.20000
S242        S  0.40349821  0.97257768  0.67468518    -0.30600
H243        H  0.43015985  0.97659924  0.75395728     0.10400
C244        C  0.49204010  0.97305089  0.82536428     0.03600
C245        C  0.99732752  0.98278634  0.86389166    -0.12900
C246        C  0.48374551  0.95641005  0.88888704    -0.08600
C247        C  0.46480364  0.91904201  0.87454908     0.07000
C248        C  0.45933388  0.90962535  0.83604387    -0.13700
S249        S  0.01025592  0.00746784  0.79428481    -0.30600
H250        H  0.01176863  0.01143275  0.87451044     0.11300
S251        S  0.44817707  0.88097716  0.90385571    -0.27700
H252        H  0.44477268  0.88105600  0.82528049     0.08500
H253        H  0.39038310  0.94027542  0.64854914     0.26900
H254        H  0.02544578  0.03775005  0.82157432     0.21700
H255        H  0.47851999  0.88199841  0.93327385     0.27000
H256        H  0.02706082  0.88644420  0.81640044     0.15900
C257        C  0.09337008  0.73007097  0.07588310    -0.11400
C258        C  0.11106566  0.76472871  0.06359088     0.15100
C259        C  0.14709792  0.76062428  0.06336469     0.02000
C260        C  0.16464542  0.72239750  0.07594601    -0.15800
C261        C  0.14689887  0.68772383  0.08805451    -0.10600
C262        C  0.11067589  0.69138387  0.08733240     0.08700
C263        C  0.09148575  0.80506924  0.05238699     0.09800
S264        S  0.17214271  0.80271060  0.04727355    -0.24900
H265        H  0.19240916  0.71958752  0.07624831     0.20000
S266        S  0.08492409  0.64764033  0.09962003    -0.30600
H267        H  0.06573308  0.73306592  0.07609987     0.10400
C268        C  0.06317326  0.80722149  0.02053323     0.03600
C269        C  0.04504664  0.84601656  0.01143271    -0.12900
C270        C  0.05462625  0.88258308  0.03354475    -0.08600
C271        C  0.08244583  0.88005640  0.06585097     0.07000
C272        C  0.10082014  0.84154407  0.07468566    -0.13700
S273        S  0.05073248  0.76099874  0.99088242    -0.30600
H274        H  0.02360613  0.84813228  0.98672473     0.11300
S275        S  0.09441251  0.92403783  0.09795452    -0.27700
H276        H  0.12208572  0.83966173  0.09961560     0.08500
H277        H  0.10397898  0.61487305  0.08685081     0.26900
H278        H  0.52241832  0.78030403  0.96532246     0.21700
H279        H  0.05992012  0.93956137  0.09401385     0.27000
H280        H  0.14391302  0.82060281  0.02065738     0.15900
C281        C  0.43502782  0.17286151  0.93271882    -0.11400
C282        C  0.40578877  0.18172399  0.94786166     0.15100
C283        C  0.39451083  0.15094618  0.97128831     0.02000
C284        C  0.41320327  0.11252235  0.97974389    -0.15800
C285        C  0.44324469  0.10408295  0.96559300    -0.10600
C286        C  0.45348401  0.13428314  0.94076007     0.08700
C287        C  0.38735199  0.22302722  0.93786908     0.09800
S288        S  0.35691699  0.15902276  0.99170298    -0.24900
H289        H  0.40476338  0.08957802  0.99850030     0.20000
S290        S  0.48852273  0.12480683  0.91677799    -0.30600
H291        H  0.44316881  0.19601387  0.91390940     0.10400
C292        C  0.40208090  0.26173604  0.95384890     0.03600
C293        C  0.38485494  0.30057892  0.94208051    -0.12900
C294        C  0.35319622  0.30143469  0.91459489    -0.08600
C295        C  0.33786133  0.26237634  0.89967290     0.07000
C296        C  0.35527921  0.22368659  0.91114334    -0.13700
S297        S  0.44268884  0.26149427  0.98943206    -0.30600
H298        H  0.39631699  0.33050638  0.95377130     0.11300
S299        S  0.29596372  0.25975295  0.86643512    -0.27700
H300        H  0.34379399  0.19385007  0.89917151     0.08500
H301        H  0.48012998  0.08131154  0.90961420     0.26900
H302        H  0.44585959  0.30621498  0.99346341     0.21700
H303        H  0.28123913  0.29571891  0.88015709     0.27000
H304        H  0.36025970  0.20376267  0.99501441     0.15900
O305        O  0.55165342  0.95633864  0.01550532    -0.73000
O306        O  0.99682504  0.06374440  0.98073434    -0.74000
O307        O  0.53176579  0.02962000  0.05175717    -0.62600
O308        O  0.51680091  0.99102745  0.94407009    -0.71000
O309        O  0.96679111  0.95980140  0.94848545    -0.70500
O310        O  0.98366364  0.99525186  0.05764460    -0.61800
O311        O  0.94783260  0.03139501  0.98715578    -0.74300
O312        O  0.50187792  0.92304993  0.01831382    -0.73100
Cu313      Cu  0.52597894  0.01130798  0.99785471     1.04600
Cu314      Cu  0.97334879  0.97624392  0.00313952     1.04300
C315        C  0.53520202  0.92263832  0.02202631     0.93200
C316        C  0.96361279  0.06450437  0.97821200     0.92400
C317        C  0.51042173  0.01834680  0.07206058     0.84500
C318        C  0.98939272  0.96942433  0.92910767     0.90800
C319        C  0.83744017  0.34350445  0.90134211     0.03100
C320        C  0.83384764  0.35631438  0.86352014    -0.13100
C321        C  0.81821091  0.39580667  0.85059756     0.00600
C322        C  0.80592026  0.42228588  0.87597156    -0.11600
C323        C  0.81020779  0.41034823  0.91407665     0.03100
C324        C  0.82597586  0.37085283  0.92655479    -0.11000
H325        H  0.84307992  0.33539745  0.84412066     0.08700
H326        H  0.79236424  0.45185476  0.86591272     0.06200
H327        H  0.82887015  0.36108978  0.95581028     0.06100
C328        C  0.66704457  0.64850661  0.10149047     0.03100
C329        C  0.68263765  0.62534456  0.07670386    -0.13100
C330        C  0.70187261  0.58798390  0.08896262     0.00600
C331        C  0.70671739  0.57499673  0.12691238    -0.11600
C332        C  0.69180025  0.59846905  0.15220397     0.03100
C333        C  0.67176729  0.63510901  0.13923422    -0.11000
H334        H  0.67963700  0.63635609  0.04777665     0.08700
H335        H  0.72205408  0.54655417  0.13679380     0.06200
H336        H  0.66062117  0.65382045  0.15869160     0.06100
O337        O  0.76005158  0.57000785  0.51776947    -0.73000
O338        O  0.70026031  0.46589566  0.49014553    -0.74000
O339        O  0.73893832  0.50145151  0.55935953    -0.62600
O340        O  0.72217709  0.53412679  0.44908695    -0.71000
O341        O  0.76898549  0.49643387  0.44392401    -0.70500
O342        O  0.78647063  0.46551610  0.55386675    -0.61800
O343        O  0.74753769  0.42830992  0.48607642    -0.74300
O344        O  0.80752100  0.53407476  0.51203508    -0.73100
Cu345      Cu  0.72872148  0.51911413  0.50428499     1.04600
Cu346      Cu  0.77926598  0.47975035  0.49880903     1.04300
C347        C  0.79305895  0.56885861  0.51918657     0.93200
C348        C  0.71435686  0.43072246  0.48360342     0.92400
C349        C  0.76604392  0.47906570  0.57422234     0.84500
C350        C  0.74267406  0.51991916  0.42898775     0.90800
C351        C  0.56450496  0.17313547  0.39041771     0.03100
C352        C  0.55319129  0.14664627  0.41685328    -0.13100
C353        C  0.53629666  0.10755249  0.40569695     0.00600
C354        C  0.52988579  0.09572891  0.36759098    -0.11600
C355        C  0.54080740  0.12195636  0.34077563     0.03100
C356        C  0.55852140  0.16042851  0.35249126    -0.11000
H357        H  0.55812307  0.15608957  0.44621096     0.08700
H358        H  0.51674537  0.06565353  0.35884270     0.06200
H359        H  0.56799284  0.18026626  0.33221355     0.06100
C360        C  0.92328573  0.84364481  0.60160123     0.03100
C361        C  0.93470499  0.87157410  0.57624389    -0.13100
C362        C  0.95140231  0.91043235  0.58880887     0.00600
C363        C  0.95723631  0.92076320  0.62729245    -0.11600
C364        C  0.94607357  0.89297403  0.65288137     0.03100
C365        C  0.92944487  0.85434975  0.63995266    -0.11000
H366        H  0.93032152  0.86321714  0.54666006     0.08700
H367        H  0.97064508  0.95028425  0.63740346     0.06200
H368        H  0.92066987  0.83296917  0.65968149     0.06100
C369        C  0.96629032  0.00979450  0.53259630    -0.11400
C370        C  0.98858186  0.99361288  0.51063152     0.15100
C371        C  0.99829120  0.94992003  0.51420706     0.02000
C372        C  0.98592384  0.92368371  0.53994050    -0.15800
C373        C  0.96331988  0.93973690  0.56173000    -0.10600
C374        C  0.95301091  0.98328185  0.55740778     0.08700
C375        C  0.50067205  0.02302787  0.48385926     0.09800
S376        S  0.52605557  0.92561799  0.48660661    -0.24900
H377        H  0.99391525  0.89036563  0.54291417     0.20000
S378        S  0.92173288  0.00658532  0.58119855    -0.30600
H379        H  0.95847714  0.04317629  0.52963823     0.10400
C380        C  0.97717281  0.03840161  0.45115571     0.03600
C381        C  0.98950103  0.06618929  0.42645601    -0.12900
C382        C  0.52497139  0.07870622  0.43345794    -0.08600
C383        C  0.54861043  0.06265435  0.46603174     0.07000
C384        C  0.53609316  0.03557686  0.49109061    -0.13700
S385        S  0.93171069  0.02143778  0.44016970    -0.30600
H386        H  0.97146244  0.07819468  0.40137733     0.11300
S387        S  0.59518195  0.07374456  0.47634566    -0.27700
H388        H  0.55424294  0.02343204  0.51607302     0.08500
H389        H  0.90131894  0.96926438  0.58062451     0.26900
H390        H  0.92087840  0.04662774  0.40733897     0.21700
H391        H  0.59816747  0.07467155  0.43847695     0.27000
H392        H  0.51509380  0.95163288  0.45434915     0.15900
C393        C  0.85758500  0.76266034  0.54868122    -0.11400
C394        C  0.87155502  0.72414933  0.56584637     0.15100
C395        C  0.90262198  0.72507248  0.59455618     0.02000
C396        C  0.91919486  0.76434541  0.60509879    -0.15800
C397        C  0.90498681  0.80304743  0.58836741    -0.10600
C398        C  0.87350762  0.80206527  0.56006477     0.08700
C399        C  0.85204258  0.68396553  0.55438150     0.09800
S400        S  0.92225450  0.67755131  0.61911765    -0.24900
H401        H  0.94321954  0.76481095  0.62694190     0.20000
S402        S  0.85129841  0.84983949  0.53879518    -0.30600
H403        H  0.83339735  0.76206339  0.52706517     0.10400
C404        C  0.82178946  0.67374326  0.56772810     0.03600
C405        C  0.80334585  0.63596886  0.55578081    -0.12900
C406        C  0.81419597  0.60815647  0.53032510    -0.08600
C407        C  0.84441664  0.61890216  0.51660377     0.07000
C408        C  0.86327226  0.65631132  0.52922825    -0.13700
S409        S  0.80704533  0.70853743  0.60058393    -0.30600
H410        H  0.78042282  0.62787420  0.56660742     0.11300
S411        S  0.85905086  0.58792762  0.48139474    -0.27700
H412        H  0.88630816  0.66457113  0.51860353     0.08500
H413        H  0.86073906  0.87535898  0.57121279     0.26900
H414        H  0.77706622  0.68469238  0.60340121     0.21700
H415        H  0.82495301  0.58013586  0.45970532     0.27000
H416        H  0.89108538  0.65375812  0.61564185     0.15900
C417        C  0.67841599  0.31709686  0.47366464    -0.11400
C418        C  0.64910919  0.32221252  0.44346200     0.15100
C419        C  0.64090826  0.36343202  0.42756354     0.02000
C420        C  0.66186686  0.39842338  0.44233352    -0.15800
C421        C  0.69172903  0.39310205  0.47180430    -0.10600
C422        C  0.69983351  0.35197371  0.48788681     0.08700
C423        C  0.62743399  0.28411524  0.42945413     0.09800
S424        S  0.60497631  0.37327157  0.38753459    -0.24900
H425        H  0.65565186  0.42984047  0.42965059     0.20000
S426        S  0.73644251  0.34214042  0.52716611    -0.30600
H427        H  0.68456197  0.28565741  0.48630148     0.10400
C428        C  0.64095169  0.25050745  0.41119726     0.03600
C429        C  0.61954578  0.21516972  0.39811985    -0.12900
C430        C  0.58486201  0.21258891  0.40290095    -0.08600
C431        C  0.57117396  0.24664403  0.42068044     0.07000
C432        C  0.59269405  0.28173354  0.43409880    -0.13700
S433        S  0.68521448  0.25299138  0.40376222    -0.30600
H434        H  0.62994792  0.18905118  0.38446457     0.11300
S435        S  0.52635102  0.24779961  0.42620582    -0.27700
H436        H  0.58217606  0.30768923  0.44788240     0.08500
H437        H  0.73474983  0.38197077  0.54452752     0.26900
H438        H  0.68520534  0.21244521  0.38714222     0.21700
H439        H  0.51204351  0.22442190  0.39343330     0.27000
H440        H  0.60646333  0.33328669  0.37041185     0.15900
C441        C  0.68086951  0.56897467  0.25085517    -0.11400
C442        C  0.71604084  0.56850663  0.27103206     0.15100
C443        C  0.74305077  0.57696501  0.25178107     0.02000
C444        C  0.73433933  0.58540829  0.21291493    -0.15800
C445        C  0.69914656  0.58627580  0.19270982    -0.10600
C446        C  0.67212678  0.57745991  0.21196823     0.08700
C447        C  0.72363991  0.55689665  0.31165627     0.09800
S448        S  0.78901443  0.57802223  0.27516002    -0.24900
H449        H  0.75519358  0.59244252  0.19842128     0.20000
S450        S  0.62621353  0.57511417  0.18852128    -0.30600
H451        H  0.66010918  0.56186164  0.26545832     0.10400
C452        C  0.71662273  0.58544193  0.33887685     0.03600
C453        C  0.72287646  0.57241525  0.37686632    -0.12900
C454        C  0.73597895  0.53132223  0.38829746    -0.08600
C455        C  0.74263944  0.50264929  0.36068247     0.07000
C456        C  0.73687141  0.51597029  0.32289715    -0.13700
S457        S  0.70057690  0.63884390  0.32531756    -0.30600
H458        H  0.71795801  0.59455435  0.39789357     0.11300
S459        S  0.75636770  0.44791308  0.37121175    -0.27700
H460        H  0.74177272  0.49380991  0.30182604     0.08500
H461        H  0.63161288  0.56154572  0.15345087     0.26900
H462        H  0.69829864  0.65234222  0.36153340     0.23300
H463        H  0.73449840  0.44089115  0.39670200     0.27000
H464        H  0.78417823  0.59062426  0.31069209     0.15900
C465        C  0.79089824  0.50620503  0.97052828    -0.11400
C466        C  0.76656759  0.48832739  0.98945798     0.15100
C467        C  0.75723186  0.44470649  0.98400949     0.02000
C468        C  0.77184294  0.42021122  0.95932628    -0.15800
C469        C  0.79636560  0.43791354  0.94047335    -0.10600
C470        C  0.80634849  0.48135545  0.94670515     0.08700
C471        C  0.75083084  0.51594083  0.01421761     0.09800
S472        S  0.72693531  0.41836220  0.00778284    -0.24900
H473        H  0.76401428  0.38703432  0.95477583     0.20000
S474        S  0.83943966  0.50671678  0.92635626    -0.30600
H475        H  0.79824698  0.53955637  0.97479832     0.10400
C476        C  0.77077238  0.53083927  0.04899103     0.03600
C477        C  0.75414963  0.55445363  0.07267807    -0.12900
C478        C  0.71790771  0.56317387  0.06250622    -0.08600
C479        C  0.69807466  0.54832154  0.02743432     0.07000
C480        C  0.71486126  0.52554999  0.00352309    -0.13700
S481        S  0.81707008  0.51843177  0.06388485    -0.30600
H482        H  0.76937198  0.56611940  0.09935095     0.11300
S483        S  0.65108052  0.55518988  0.01227826    -0.27700
H484        H  0.69953104  0.51388164  0.97686379     0.08500
H485        H  0.85968227  0.46956312  0.92588966     0.26900
H486        H  0.82283991  0.53884109  0.09910635     0.21700
H487        H  0.64421833  0.55162083  0.04857526     0.27000
H488        H  0.73598259  0.44221472  0.04121365     0.15900
C489        C  0.81500331  0.45129283  0.67450034    -0.11400
C490        C  0.78712701  0.44443973  0.69238523     0.15100
C491        C  0.75224832  0.45142651  0.67180768     0.02000
C492        C  0.74605660  0.46275446  0.63343861    -0.15800
C493        C  0.77398006  0.46873637  0.61523087    -0.10600
C494        C  0.80894166  0.46413693  0.63663028     0.08700
C495        C  0.79561844  0.43091135  0.73266678     0.09800
S496        S  0.71463100  0.44689234  0.69287923    -0.24900
H497        H  0.71915250  0.46686848  0.61766640     0.20000
S498        S  0.84710241  0.47634312  0.61811968    -0.30600
H499        H  0.84186425  0.44717054  0.69043471     0.10400
C500        C  0.78702744  0.38974714  0.74419071     0.03600
C501        C  0.79503066  0.37893904  0.78274484    -0.12900
C502        C  0.81235975  0.40801475  0.81001885    -0.08600
C503        C  0.82286461  0.44827171  0.79812562     0.07000
C504        C  0.81400140  0.45943775  0.75967395    -0.13700
S505        S  0.76685159  0.35052371  0.70978033    -0.30600
H506        H  0.78744380  0.34788157  0.79179244     0.11300
S507        S  0.84944350  0.48450773  0.83126912    -0.27700
H508        H  0.82161347  0.49038639  0.75040577     0.08500
H509        H  0.83221036  0.51301044  0.59791881     0.26900
H510        H  0.76625233  0.31665621  0.73545240     0.21700
H511        H  0.84889241  0.51905992  0.80600464     0.27000
H512        H  0.73221612  0.45883232  0.72946348     0.15900
C513        C  0.55018021  0.06652024  0.16918544    -0.11400
C514        C  0.52251052  0.06091965  0.18753255     0.15100
C515        C  0.99132440  0.04071495  0.16829107     0.02000
C516        C  0.98836976  0.02715560  0.13102828    -0.15800
C517        C  0.51607493  0.03252179  0.11223310    -0.10600
C518        C  0.54763514  0.05225181  0.13222322     0.08700
C519        C  0.52719896  0.07643650  0.22676134     0.09800
S520        S  0.95405706  0.03191343  0.18929816    -0.24900
H521        H  0.96394945  0.01236421  0.11659884     0.20000
S522        S  0.58607333  0.06004310  0.11314284    -0.30600
H523        H  0.57425601  0.08175649  0.18407631     0.10400
C524        C  0.54431249  0.05110712  0.25767177     0.03600
C525        C  0.54839293  0.06686827  0.29441446    -0.12900
C526        C  0.53543683  0.10739840  0.30106917    -0.08600
C527        C  0.51783329  0.13251102  0.26991838     0.07000
C528        C  0.51431827  0.11697035  0.23316345    -0.13700
S529        S  0.56043572  0.99837899  0.25029097    -0.30600
H530        H  0.56196541  0.04764901  0.31818108     0.11300
S531        S  0.49810909  0.18370558  0.27508398    -0.27700
H532        H  0.50089197  0.13627833  0.20935393     0.08500
H533        H  0.58675319  0.01744298  0.10119736     0.26900
H534        H  0.57029145  0.98632352  0.28860864     0.21700
H535        H  0.48880720  0.17363541  0.30938243     0.27000
H536        H  0.97272055  0.02984419  0.22709093     0.15900
C537        C  0.94305381  0.94947485  0.74441091    -0.11400
C538        C  0.96664072  0.92453770  0.77084682     0.15100
C539        C  0.98280391  0.88865570  0.75830855     0.02000
C540        C  0.97507353  0.87865395  0.71982493    -0.15800
C541        C  0.95192774  0.90402984  0.69333030    -0.10600
C542        C  0.93536668  0.93950612  0.70594429     0.08700
C543        C  0.97289455  0.93606894  0.81132808     0.09800
S544        S  0.51379894  0.85471264  0.78976558    -0.24900
H545        H  0.98777577  0.85133985  0.71031589     0.20000
S546        S  0.90349750  0.97257684  0.67468480    -0.30600
H547        H  0.93015917  0.97659914  0.75395688     0.10400
C548        C  0.99203959  0.97305140  0.82536410     0.03600
C549        C  0.49732807  0.98278589  0.86389184    -0.12900
C550        C  0.98374503  0.95641039  0.88888683    -0.08600
C551        C  0.96480318  0.91904236  0.87454883     0.07000
C552        C  0.95933347  0.90962575  0.83604363    -0.13700
S553        S  0.51025648  0.00746722  0.79428495    -0.30600
H554        H  0.51176924  0.01143225  0.87451059     0.11300
S555        S  0.94817659  0.88097745  0.90385539    -0.27700
H556        H  0.94477232  0.88105637  0.82528020     0.08500
H557        H  0.89038304  0.94027453  0.64854857     0.26900
H558        H  0.52544571  0.03774997  0.82157425     0.21700
H559        H  0.97851956  0.88199848  0.93327347     0.27000
H560        H  0.52706043  0.88644264  0.81640075     0.15900
C561        C  0.59336929  0.73007018  0.07588252    -0.11400
C562        C  0.61106504  0.76472830  0.06359114     0.15100
C563        C  0.64709748  0.76062428  0.06336569     0.02000
C564        C  0.66464498  0.72239747  0.07594683    -0.15800
C565        C  0.64689830  0.68772343  0.08805455    -0.10600
C566        C  0.61067518  0.69138311  0.08733182     0.08700
C567        C  0.59148514  0.80506883  0.05238739     0.09800
S568        S  0.67214253  0.80271123  0.04727583    -0.24900
H569        H  0.69240888  0.71958776  0.07624967     0.20000
S570        S  0.58492338  0.64763924  0.09961883    -0.30600
H571        H  0.56573214  0.73306486  0.07609873     0.10400
C572        C  0.56317367  0.80722166  0.02053267     0.03600
C573        C  0.54504718  0.84601682  0.01143209    -0.12900
C574        C  0.55462589  0.88258279  0.03354513    -0.08600
C575        C  0.58244433  0.88005547  0.06585237     0.07000
C576        C  0.60081860  0.84154310  0.07468706    -0.13700
S577        S  0.55073410  0.76099959  0.99088069    -0.30600
H578        H  0.52360756  0.84813304  0.98672335     0.11300
S579        S  0.59440952  0.92403608  0.09795711    -0.27700
H580        H  0.62208335  0.83966028  0.09961768     0.08500
H581        H  0.60397863  0.61487227  0.08684967     0.26900
H582        H  0.02241720  0.78030345  0.96532369     0.21700
H583        H  0.55991688  0.93955935  0.09401503     0.27000
H584        H  0.64391316  0.82060380  0.02065946     0.15900
C585        C  0.93502725  0.17286141  0.93271893    -0.11400
C586        C  0.90578823  0.18172389  0.94786182     0.15100
C587        C  0.89451043  0.15094613  0.97128861     0.02000
C588        C  0.91320289  0.11252231  0.97974417    -0.15800
C589        C  0.94324423  0.10408289  0.96559316    -0.10600
C590        C  0.95348350  0.13428308  0.94076020     0.08700
C591        C  0.88735141  0.22302708  0.93786921     0.09800
S592        S  0.85691673  0.15902276  0.99170352    -0.24900
H593        H  0.90476308  0.08957799  0.99850065     0.20000
S594        S  0.98852225  0.12480688  0.91677814    -0.30600
H595        H  0.94316820  0.19601379  0.91390945     0.10400
C596        C  0.90208022  0.26173589  0.95384916     0.03600
C597        C  0.88485429  0.30057876  0.94208071    -0.12900
C598        C  0.85319571  0.30143457  0.91459489    -0.08600
C599        C  0.83786092  0.26237623  0.89967273     0.07000
C600        C  0.85527875  0.22368648  0.91114326    -0.13700
S601        S  0.94268800  0.26149412  0.98943256    -0.30600
H602        H  0.89631627  0.33050623  0.95377164     0.11300
S603        S  0.79596354  0.25975285  0.86643452    -0.27700
H604        H  0.84379362  0.19384996  0.89917131     0.08500
H605        H  0.98012948  0.08131161  0.90961421     0.26900
H606        H  0.94585903  0.30621486  0.99346348     0.21700
H607        H  0.78123886  0.29571910  0.88015594     0.27000
H608        H  0.86025917  0.20376273  0.99501451     0.15900
loop_ 
_geom_bond_atom_site_label_1 
_geom_bond_atom_site_label_2 
_geom_bond_distance 
_geom_bond_site_symmetry_2 
_ccdc_geom_bond_type 
O1           Cu9   2.014   1_564  S
O1           C11   1.278       .  A
O2         Cu313   2.007       .  S
O2           C12   1.278       .  A
O3           Cu9   2.009   1_554  S
O3           C13   1.276       .  A
O4           Cu9   2.014   1_565  S
O4          C318   1.279   1_455  A
O5          Cu10   2.015   1_556  S
O5           C14   1.279       .  A
O6          Cu10   2.025       .  S
O6          C317   1.281   1_565  A
O7          Cu10   2.005   1_546  S
O7           C12   1.277       .  A
O8         Cu314   2.003   1_455  S
O8           C11   1.276       .  A
Cu9         O306   2.007   1_455  S
Cu9        Cu314   2.368   1_446  S
Cu10        O312   2.003       .  S
Cu10       Cu313   2.368   1_564  S
C11         C270   1.471       .  S
C12         C285   1.482       .  S
C13         O310   1.281   1_445  A
C13         C213   1.497       .  S
C14         O308   1.279       .  A
C14         C246   1.488       .  S
C15         C294   1.481       .  S
C15          C16   1.404       .  A
C15          C20   1.402       .  A
C16          C17   1.405       .  A
C16          H21   1.084       .  S
C17         C198   1.487       .  S
C17          C18   1.405       .  A
C18          C19   1.404       .  A
C18          H22   1.083       .  S
C19         C165   1.483       .  S
C19          C20   1.404       .  A
C20          H23   1.084       .  S
C24         C261   1.475       .  S
C24          C25   1.400       .  A
C24          C29   1.402       .  A
C25          C26   1.402       .  A
C25          H30   1.084       .  S
C26         C174   1.483       .  S
C26          C27   1.405       .  A
C27          C28   1.404       .  A
C27          H31   1.084       .  S
C28         C141   1.481       .  S
C28          C29   1.403       .  A
C29          H32   1.084       .  S
O33         Cu41   1.998       .  S
O33          C43   1.277       .  A
O34         Cu41   2.001       .  S
O34          C44   1.276       .  A
O35         Cu41   2.023       .  S
O35          C45   1.280       .  A
O36         Cu41   2.015       .  S
O36          C46   1.279       .  A
O37         Cu42   2.008       .  S
O37          C46   1.277       .  A
O38         Cu42   2.003       .  S
O38          C45   1.277       .  A
O39         Cu42   2.017       .  S
O39          C44   1.279       .  A
O40         Cu42   2.022       .  S
O40          C43   1.279       .  A
Cu41        Cu42   2.371       .  S
C43         C102   1.484       .  S
C44         C117   1.475       .  S
C45         C189   1.485       .  S
C46         C150   1.483       .  S
C47         C126   1.482       .  S
C47          C48   1.405       .  A
C47          C52   1.406       .  A
C48          C49   1.404       .  A
C48          H53   1.084       .  S
C49          C78   1.484       .  S
C49          C50   1.403       .  A
C50          C51   1.403       .  A
C50          H54   1.084       .  S
C51         C222   1.486       .  S
C51          C52   1.405       .  A
C52          H55   1.084       .  S
C56          C93   1.483       .  S
C56          C57   1.405       .  A
C56          C61   1.403       .  A
C57          C58   1.405       .  A
C57          H62   1.084       .  S
C58          C69   1.485       .  S
C58          C59   1.406       .  A
C59          C60   1.404       .  A
C59          H63   1.084       .  S
C60         C237   1.480       .  S
C60          C61   1.401       .  A
C61          H64   1.084       .  S
C65          C66   1.402   1_545  A
C65          C70   1.399   1_545  A
C65          H75   1.083       .  S
C66         C375   1.482   1_565  S
C66          C67   1.413       .  A
C67          C68   1.401       .  A
C67         S376   1.804       .  S
C68          C69   1.405       .  A
C68          H73   1.083       .  S
C69          C70   1.415       .  A
C70          S74   1.803   1_565  S
C71         C370   1.482   1_445  S
C71          C80   1.402       .  A
C71         C380   1.409   1_455  A
S72         C371   1.804   1_455  S
S72          H88   1.406       .  S
S74          H85   1.407   1_545  S
C76          C77   1.402       .  A
C76         C375   1.409       .  A
C76          S81   1.807       .  S
C77         C382   1.404       .  A
C77          H82   1.083       .  S
C78          C79   1.416       .  A
C78         C381   1.404   1_455  A
C79          C80   1.401       .  A
C79          S83   1.804       .  S
C80          H84   1.085       .  S
S81          H86   1.407       .  S
S83          H87   1.406       .  S
C89          C90   1.402       .  A
C89          C94   1.400       .  A
C89          H99   1.084       .  S
C90          C95   1.479       .  S
C90          C91   1.411       .  A
C91          C92   1.400       .  A
C91          S96   1.805       .  S
C92          C93   1.405       .  A
C92          H97   1.084       .  S
C93          C94   1.415       .  A
C94          S98   1.804       .  S
C95         C100   1.407       .  A
C95         C104   1.402       .  A
S96         H112   1.405       .  S
S98         H109   1.406       .  S
C100        C101   1.400       .  A
C100        S105   1.807       .  S
C101        C102   1.406       .  A
C101        H106   1.082       .  S
C102        C103   1.417       .  A
C103        C104   1.403       .  A
C103        S107   1.802       .  S
C104        H108   1.084       .  S
S105        H110   1.407       .  S
S107        H111   1.408       .  S
C113        C114   1.405       .  A
C113        C118   1.400       .  A
C113        H123   1.084       .  S
C114        C119   1.483       .  S
C114        C115   1.413       .  A
C115        C116   1.399       .  A
C115        S120   1.804       .  S
C116        C117   1.404       .  A
C116        H121   1.084       .  S
C117        C118   1.412       .  A
C118        S122   1.803       .  S
C119        C124   1.410       .  A
C119        C128   1.404       .  A
S120        H136   1.406       .  S
S122        H133   1.407       .  S
C124        C125   1.402       .  A
C124        S129   1.807       .  S
C125        C126   1.403       .  A
C125        H130   1.083       .  S
C126        C127   1.414       .  A
C127        C128   1.401       .  A
C127        S131   1.804       .  S
C128        H132   1.084       .  S
S129        H134   1.407       .  S
S131        H135   1.406       .  S
C137        C138   1.403       .  A
C137        C142   1.400       .  A
C137        H147   1.084       .  S
C138        C143   1.481       .  S
C138        C139   1.412       .  A
C139        C140   1.399       .  A
C139        S144   1.804       .  S
C140        C141   1.404       .  A
C140        H145   1.084       .  S
C141        C142   1.414       .  A
C142        S146   1.804       .  S
C143        C148   1.408       .  A
C143        C152   1.401       .  A
S144        H160   1.405       .  S
S146        H157   1.406       .  S
C148        C149   1.403       .  A
C148        S153   1.806       .  S
C149        C150   1.406       .  A
C149        H154   1.083       .  S
C150        C151   1.417       .  A
C151        C152   1.400       .  A
C151        S155   1.803       .  S
C152        H156   1.084       .  S
S153        H158   1.407       .  S
S155        H159   1.408       .  S
C161        C162   1.402       .  A
C161        C166   1.400       .  A
C161        H171   1.082       .  S
C162        C167   1.480   1_556  S
C162        C163   1.412       .  A
C163        C164   1.398       .  A
C163        S168   1.804   1_556  S
C164        C165   1.404       .  A
C164        H169   1.082       .  S
C165        C166   1.415       .  A
C166        S170   1.802       .  S
C167        C172   1.409       .  A
C167        C176   1.401       .  A
S168        H184   1.406       .  S
S170        H181   1.406       .  S
C172        C173   1.402       .  A
C172        S177   1.807       .  S
C173        C174   1.405       .  A
C173        H178   1.083       .  S
C174        C175   1.416       .  A
C175        C176   1.398       .  A
C175        S179   1.804       .  S
C176        H180   1.084   1_554  S
S177        H182   1.407       .  S
S179        H183   1.406       .  S
C185        C186   1.400       .  A
C185        C190   1.398       .  A
C185        H195   1.085       .  S
C186        C191   1.484       .  S
C186        C187   1.414       .  A
C187        C188   1.403       .  A
C187        S192   1.805       .  S
C188        C189   1.406       .  A
C188        H193   1.084       .  S
C189        C190   1.417       .  A
C190        S194   1.803       .  S
C191        C196   1.410       .  A
C191        C200   1.402       .  A
S192        H208   1.406       .  S
S194        H205   1.408       .  S
C196        C197   1.403       .  A
C196        S201   1.806       .  S
C197        C198   1.405       .  A
C197        H202   1.082       .  S
C198        C199   1.414       .  A
C199        C200   1.403       .  A
C199        S203   1.806       .  S
C200        H204   1.082       .  S
S201        H206   1.407       .  S
S203        H207   1.407       .  S
C209        C210   1.399       .  A
C209        C214   1.401       .  A
C209        H219   1.084       .  S
C210        C215   1.481       .  S
C210        C515   1.410   1_455  A
C211        C212   1.402       .  A
C211        C514   1.410       .  A
C211        S216   1.805       .  S
C212        C517   1.410       .  A
C212        H217   1.083       .  S
C213        C214   1.423       .  A
C213        C516   1.410   1_455  A
C214        S218   1.802       .  S
C215        C220   1.408       .  A
C215        C224   1.402       .  A
S216        H232   1.404       .  S
S218        H229   1.404       .  S
C220        C221   1.402       .  A
C220        S225   1.806   1_545  S
C221        C222   1.406       .  A
C221        H226   1.083       .  S
C222        C223   1.416       .  A
C223        C224   1.402       .  A
C223        S227   1.804   1_455  S
C224        H228   1.084       .  S
S225        H230   1.407       .  S
S227        H231   1.406       .  S
C233        C234   1.403       .  A
C233        C238   1.400       .  A
C233        H243   1.084       .  S
C234        C239   1.483       .  S
C234        C235   1.414       .  A
C235        C236   1.401       .  A
C235        S544   1.804       .  S
C236        C237   1.403       .  A
C236        H241   1.084       .  S
C237        C238   1.413       .  A
C238        S242   1.804       .  S
C239        C244   1.409       .  A
C239        C248   1.401       .  A
S240        C539   1.804   1_455  S
S240        H256   1.405       .  S
S242        H253   1.406       .  S
C244        C549   1.404       .  A
C244        S553   1.807   1_565  S
C245        C548   1.404       .  A
C245        C550   1.408       .  A
C245        H250   1.082   1_665  S
C246        C247   1.418       .  A
C246        C549   1.408       .  A
C247        C248   1.401       .  A
C247        S251   1.802       .  S
C248        H252   1.084       .  S
S249        C548   1.807   1_445  S
S249        H254   1.406       .  S
S251        H255   1.407       .  S
C257        C258   1.404       .  A
C257        C262   1.398       .  A
C257        H267   1.084       .  S
C258        C263   1.479       .  S
C258        C259   1.413       .  A
C259        C260   1.398       .  A
C259        S264   1.804       .  S
C260        C261   1.402       .  A
C260        H265   1.084       .  S
C261        C262   1.412       .  A
C262        S266   1.804       .  S
C263        C268   1.411       .  A
C263        C272   1.402       .  A
S264        H280   1.406       .  S
S266        H277   1.407       .  S
C268        C269   1.402       .  A
C268        S273   1.807   1_554  S
C269        C270   1.402       .  A
C269        H274   1.083   1_554  S
C270        C271   1.411       .  A
C271        C272   1.398       .  A
C271        S275   1.801       .  S
C272        H276   1.084       .  S
S273        H582   1.407       .  S
S275        H279   1.407       .  S
H278        S577   1.407       .  S
C281        C282   1.401       .  A
C281        C286   1.398       .  A
C281        H291   1.085       .  S
C282        C287   1.479       .  S
C282        C283   1.411       .  A
C283        C284   1.400       .  A
C283        S288   1.804       .  S
C284        C285   1.407       .  A
C284        H289   1.084       .  S
C285        C286   1.416       .  A
C286        S290   1.803       .  S
C287        C292   1.409       .  A
C287        C296   1.402       .  A
S288        H304   1.405       .  S
S290        H301   1.408       .  S
C292        C293   1.403       .  A
C292        S297   1.807       .  S
C293        C294   1.404       .  A
C293        H298   1.083       .  S
C294        C295   1.414       .  A
C295        C296   1.400       .  A
C295        S299   1.804       .  S
C296        H300   1.084       .  S
S297        H302   1.406       .  S
S299        H303   1.406       .  S
O305       Cu313   2.014   1_564  S
O305        C315   1.278       .  A
O306        C316   1.278       .  A
O307       Cu313   2.009   1_554  S
O307        C317   1.276       .  A
O308       Cu313   2.014   1_565  S
O309       Cu314   2.015   1_556  S
O309        C318   1.279       .  A
O310       Cu314   2.025       .  S
O311       Cu314   2.005   1_546  S
O311        C316   1.277       .  A
O312        C315   1.276       .  A
C315        C574   1.471       .  S
C316        C589   1.482       .  S
C317        C517   1.497       .  S
C318        C550   1.488       .  S
C319        C598   1.481       .  S
C319        C320   1.404       .  A
C319        C324   1.402       .  A
C320        C321   1.405       .  A
C320        H325   1.084       .  S
C321        C502   1.487       .  S
C321        C322   1.405       .  A
C322        C323   1.404       .  A
C322        H326   1.083       .  S
C323        C469   1.483       .  S
C323        C324   1.404       .  A
C324        H327   1.084       .  S
C328        C565   1.475       .  S
C328        C329   1.400       .  A
C328        C333   1.402       .  A
C329        C330   1.402       .  A
C329        H334   1.084       .  S
C330        C478   1.483       .  S
C330        C331   1.405       .  A
C331        C332   1.404       .  A
C331        H335   1.084       .  S
C332        C445   1.481       .  S
C332        C333   1.403       .  A
C333        H336   1.084       .  S
O337       Cu345   1.998       .  S
O337        C347   1.277       .  A
O338       Cu345   2.001       .  S
O338        C348   1.276       .  A
O339       Cu345   2.023       .  S
O339        C349   1.280       .  A
O340       Cu345   2.015       .  S
O340        C350   1.279       .  A
O341       Cu346   2.008       .  S
O341        C350   1.277       .  A
O342       Cu346   2.003       .  S
O342        C349   1.277       .  A
O343       Cu346   2.017       .  S
O343        C348   1.279       .  A
O344       Cu346   2.022       .  S
O344        C347   1.279       .  A
Cu345      Cu346   2.371       .  S
C347        C406   1.484       .  S
C348        C421   1.475       .  S
C349        C493   1.485       .  S
C350        C454   1.483       .  S
C351        C430   1.482       .  S
C351        C352   1.405       .  A
C351        C356   1.406       .  A
C352        C353   1.404       .  A
C352        H357   1.084       .  S
C353        C382   1.484       .  S
C353        C354   1.403       .  A
C354        C355   1.403       .  A
C354        H358   1.084       .  S
C355        C526   1.486       .  S
C355        C356   1.405       .  A
C356        H359   1.084       .  S
C360        C397   1.483       .  S
C360        C361   1.405       .  A
C360        C365   1.403       .  A
C361        C362   1.405       .  A
C361        H366   1.084       .  S
C362        C373   1.485       .  S
C362        C363   1.406       .  A
C363        C364   1.404       .  A
C363        H367   1.084       .  S
C364        C541   1.480       .  S
C364        C365   1.401       .  A
C365        H368   1.084       .  S
C369        C370   1.402   1_545  A
C369        C374   1.399   1_545  A
C369        H379   1.083       .  S
C370        C371   1.413       .  A
C371        C372   1.401       .  A
C372        C373   1.405       .  A
C372        H377   1.083       .  S
C373        C374   1.415       .  A
C374        S378   1.803   1_565  S
C375        C384   1.402       .  A
S376        H392   1.406       .  S
S378        H389   1.407   1_545  S
C380        C381   1.402       .  A
C380        S385   1.807       .  S
C381        H386   1.083       .  S
C382        C383   1.416       .  A
C383        C384   1.401       .  A
C383        S387   1.804       .  S
C384        H388   1.085       .  S
S385        H390   1.407       .  S
S387        H391   1.406       .  S
C393        C394   1.402       .  A
C393        C398   1.400       .  A
C393        H403   1.084       .  S
C394        C399   1.479       .  S
C394        C395   1.411       .  A
C395        C396   1.400       .  A
C395        S400   1.805       .  S
C396        C397   1.405       .  A
C396        H401   1.084       .  S
C397        C398   1.415       .  A
C398        S402   1.804       .  S
C399        C404   1.407       .  A
C399        C408   1.402       .  A
S400        H416   1.405       .  S
S402        H413   1.406       .  S
C404        C405   1.400       .  A
C404        S409   1.807       .  S
C405        C406   1.406       .  A
C405        H410   1.082       .  S
C406        C407   1.417       .  A
C407        C408   1.403       .  A
C407        S411   1.802       .  S
C408        H412   1.084       .  S
S409        H414   1.407       .  S
S411        H415   1.408       .  S
C417        C418   1.405       .  A
C417        C422   1.400       .  A
C417        H427   1.084       .  S
C418        C423   1.483       .  S
C418        C419   1.413       .  A
C419        C420   1.399       .  A
C419        S424   1.804       .  S
C420        C421   1.404       .  A
C420        H425   1.084       .  S
C421        C422   1.412       .  A
C422        S426   1.803       .  S
C423        C428   1.410       .  A
C423        C432   1.404       .  A
S424        H440   1.406       .  S
S426        H437   1.407       .  S
C428        C429   1.402       .  A
C428        S433   1.807       .  S
C429        C430   1.403       .  A
C429        H434   1.083       .  S
C430        C431   1.414       .  A
C431        C432   1.401       .  A
C431        S435   1.804       .  S
C432        H436   1.084       .  S
S433        H438   1.407       .  S
S435        H439   1.406       .  S
C441        C442   1.403       .  A
C441        C446   1.400       .  A
C441        H451   1.084       .  S
C442        C447   1.481       .  S
C442        C443   1.412       .  A
C443        C444   1.399       .  A
C443        S448   1.804       .  S
C444        C445   1.404       .  A
C444        H449   1.084       .  S
C445        C446   1.414       .  A
C446        S450   1.804       .  S
C447        C452   1.408       .  A
C447        C456   1.401       .  A
S448        H464   1.405       .  S
S450        H461   1.406       .  S
C452        C453   1.403       .  A
C452        S457   1.806       .  S
C453        C454   1.406       .  A
C453        H458   1.083       .  S
C454        C455   1.417       .  A
C455        C456   1.400       .  A
C455        S459   1.803       .  S
C456        H460   1.084       .  S
S457        H462   1.407       .  S
S459        H463   1.408       .  S
C465        C466   1.402       .  A
C465        C470   1.400       .  A
C465        H475   1.082       .  S
C466        C471   1.480   1_556  S
C466        C467   1.412       .  A
C467        C468   1.398       .  A
C467        S472   1.804   1_556  S
C468        C469   1.404       .  A
C468        H473   1.082       .  S
C469        C470   1.415       .  A
C470        S474   1.802       .  S
C471        C476   1.409       .  A
C471        C480   1.401       .  A
S472        H488   1.406       .  S
S474        H485   1.406       .  S
C476        C477   1.402       .  A
C476        S481   1.807       .  S
C477        C478   1.405       .  A
C477        H482   1.083       .  S
C478        C479   1.416       .  A
C479        C480   1.398       .  A
C479        S483   1.804       .  S
C480        H484   1.084   1_554  S
S481        H486   1.407       .  S
S483        H487   1.406       .  S
C489        C490   1.400       .  A
C489        C494   1.398       .  A
C489        H499   1.085       .  S
C490        C495   1.484       .  S
C490        C491   1.414       .  A
C491        C492   1.403       .  A
C491        S496   1.805       .  S
C492        C493   1.406       .  A
C492        H497   1.084       .  S
C493        C494   1.417       .  A
C494        S498   1.803       .  S
C495        C500   1.410       .  A
C495        C504   1.402       .  A
S496        H512   1.406       .  S
S498        H509   1.408       .  S
C500        C501   1.403       .  A
C500        S505   1.806       .  S
C501        C502   1.405       .  A
C501        H506   1.082       .  S
C502        C503   1.414       .  A
C503        C504   1.403       .  A
C503        S507   1.806       .  S
C504        H508   1.082       .  S
S505        H510   1.407       .  S
S507        H511   1.407       .  S
C513        C514   1.399       .  A
C513        C518   1.401       .  A
C513        H523   1.084       .  S
C514        C519   1.481       .  S
C515        C516   1.402       .  A
C515        S520   1.805       .  S
C516        H521   1.083       .  S
C517        C518   1.423       .  A
C518        S522   1.802       .  S
C519        C524   1.408       .  A
C519        C528   1.402       .  A
S520        H536   1.404       .  S
S522        H533   1.404       .  S
C524        C525   1.402       .  A
C524        S529   1.806   1_545  S
C525        C526   1.406       .  A
C525        H530   1.083       .  S
C526        C527   1.416       .  A
C527        C528   1.402       .  A
C527        S531   1.804       .  S
C528        H532   1.084       .  S
S529        H534   1.407       .  S
S531        H535   1.406       .  S
C537        C538   1.403       .  A
C537        C542   1.400       .  A
C537        H547   1.084       .  S
C538        C543   1.483       .  S
C538        C539   1.414       .  A
C539        C540   1.401       .  A
C540        C541   1.403       .  A
C540        H545   1.084       .  S
C541        C542   1.413       .  A
C542        S546   1.804       .  S
C543        C548   1.409       .  A
C543        C552   1.401       .  A
S544        H560   1.405       .  S
S546        H557   1.406       .  S
C549        H554   1.082   1_565  S
C550        C551   1.418       .  A
C551        C552   1.401       .  A
C551        S555   1.802       .  S
C552        H556   1.084       .  S
S553        H558   1.406       .  S
S555        H559   1.407       .  S
C561        C562   1.404       .  A
C561        C566   1.398       .  A
C561        H571   1.084       .  S
C562        C567   1.479       .  S
C562        C563   1.413       .  A
C563        C564   1.398       .  A
C563        S568   1.804       .  S
C564        C565   1.402       .  A
C564        H569   1.084       .  S
C565        C566   1.412       .  A
C566        S570   1.804       .  S
C567        C572   1.411       .  A
C567        C576   1.402       .  A
S568        H584   1.406       .  S
S570        H581   1.407       .  S
C572        C573   1.402       .  A
C572        S577   1.807   1_554  S
C573        C574   1.402       .  A
C573        H578   1.083   1_554  S
C574        C575   1.411       .  A
C575        C576   1.398       .  A
C575        S579   1.801       .  S
C576        H580   1.084       .  S
S579        H583   1.407       .  S
C585        C586   1.401       .  A
C585        C590   1.398       .  A
C585        H595   1.085       .  S
C586        C591   1.479       .  S
C586        C587   1.411       .  A
C587        C588   1.400       .  A
C587        S592   1.804       .  S
C588        C589   1.407       .  A
C588        H593   1.084       .  S
C589        C590   1.416       .  A
C590        S594   1.803       .  S
C591        C596   1.409       .  A
C591        C600   1.402       .  A
S592        H608   1.405       .  S
S594        H605   1.408       .  S
C596        C597   1.403       .  A
C596        S601   1.807       .  S
C597        C598   1.404       .  A
C597        H602   1.083       .  S
C598        C599   1.414       .  A
C599        C600   1.400       .  A
C599        S603   1.804       .  S
C600        H604   1.084       .  S
S601        H606   1.406       .  S
S603        H607   1.406       .  S
