geometry optimzed in LAMMPS
_audit_creation_date              2020-11-30 
_audit_creation_method            'lammps2cif' 
_symmetry_space_group_name_H-M    'P1' 
_symmetry_Int_Tables_number       1 
_symmetry_cell_setting            triclinic 
loop_ 
_symmetry_equiv_pos_as_xyz 
  x,y,z 
_cell_length_a                    66.4572207 
_cell_length_b                    66.61063104372933 
_cell_length_c                    66.72351461382081 
_cell_angle_alpha                 89.99597454245847 
_cell_angle_beta                  90.08252087441548 
_cell_angle_gamma                 90.12909721018087 
loop_ 
_atom_site_label 
_atom_site_type_symbol 
_atom_site_fract_x 
_atom_site_fract_y 
_atom_site_fract_z 
_atom_site_charge 
O1          O  0.75564909  0.38745368  0.35648808    -0.57500
C2          C  0.78876035  0.39018137  0.40918048     0.75200
O3          O  0.74249710  0.34761319  0.40895032    -0.58600
C4          C  0.74703234  0.37410811  0.34597277     0.75100
C5          C  0.79307110  0.33264806  0.37553808     0.77500
Cd6        Cd  0.76470919  0.36418684  0.38415891     1.37500
O7          O  0.78933107  0.39176782  0.39026834    -0.57500
O8          O  0.79615314  0.35096675  0.37180906    -0.56300
C9          C  0.72892723  0.36095047  0.40792329     0.77500
O10         O  0.77641319  0.32836924  0.38377939    -0.58700
O11         O  0.77632825  0.37766635  0.41620806    -0.57100
O12         O  0.74763711  0.35643164  0.35291162    -0.57100
O13         O  0.73156150  0.37477365  0.39518139    -0.56300
O14         O  0.64912455  0.38192207  0.46369066    -0.57500
C15         C  0.60784875  0.40056721  0.50872423     0.75200
O16         O  0.67262124  0.42101401  0.51226604    -0.58600
C17         C  0.66809937  0.38364186  0.46281866     0.75100
C18         C  0.63755500  0.44264015  0.46285578     0.77500
Cd19       Cd  0.64563478  0.40893134  0.48929870     1.37500
O20         O  0.61558801  0.38793361  0.49679787    -0.57500
O21         O  0.63053270  0.42521194  0.46024176    -0.56300
C22         C  0.67155770  0.40595769  0.52390885     0.77500
O23         O  0.64855923  0.44507196  0.47823532    -0.58700
O24         O  0.61737217  0.41694116  0.51079110    -0.57100
O25         O  0.67622020  0.39602795  0.47464919    -0.57100
O26         O  0.65795652  0.39320009  0.52004217    -0.56300
O27         O  0.72620986  0.38093592  0.60372789    -0.57500
C28         C  0.77568342  0.36734800  0.64556617     0.75200
O29         O  0.74297160  0.32060081  0.60675206    -0.58600
C30         C  0.72704750  0.37972996  0.58477305     0.75100
C31         C  0.78954938  0.35823654  0.58495030     0.77500
Cd32       Cd  0.75419480  0.35650104  0.60945340     1.37500
O33         O  0.76445731  0.38013684  0.63690879    -0.57500
O34         O  0.78501772  0.37149298  0.59768982    -0.56300
C35         C  0.72904060  0.32227870  0.61963842     0.77500
O36         O  0.77790781  0.34310114  0.58377375    -0.58700
O37         O  0.77550139  0.34990107  0.63809001    -0.57100
O38         O  0.74080072  0.36885281  0.57764377    -0.57100
O39         O  0.72766654  0.33914006  0.62823353    -0.56300
O40         O  0.86615213  0.38566198  0.52782526    -0.57500
C41         C  0.90631649  0.40573361  0.48274537     0.75200
O42         O  0.84198856  0.42888592  0.48391662    -0.58600
C43         C  0.84723929  0.38757863  0.52919804     0.75100
C44         C  0.88140350  0.44701524  0.53107070     0.77500
Cd45       Cd  0.86995018  0.41462168  0.50428481     1.37500
O46         O  0.89832461  0.39274603  0.49419236    -0.57500
O47         O  0.88851110  0.42949225  0.53213922    -0.56300
C48         C  0.84322039  0.41555005  0.47038514     0.77500
O49         O  0.86865906  0.45001324  0.51722602    -0.58700
O50         O  0.89774589  0.42266743  0.48215332    -0.57100
O51         O  0.83930889  0.40142278  0.51903133    -0.57100
O52         O  0.85725349  0.40288242  0.47219977    -0.56300
O53         O  0.38083654  0.37015968  0.74065020    -0.57500
C54         C  0.38902473  0.42144749  0.77687200     0.75200
O55         O  0.34621104  0.42711827  0.73143943    -0.58600
C56         C  0.36718887  0.36291266  0.72940164     0.75100
C57         C  0.32888357  0.39012840  0.77996532     0.77500
Cd58       Cd  0.36084123  0.39955895  0.75182000     1.37500
O59         O  0.39022321  0.40249827  0.77559074    -0.57500
O60         O  0.34589224  0.38166994  0.77994926    -0.56300
C61         C  0.35964460  0.42613331  0.71796029     0.77500
O62         O  0.32612375  0.40309183  0.76632616    -0.58700
O63         O  0.37577516  0.42972001  0.76614164    -0.57100
O64         O  0.35067922  0.37234151  0.72932920    -0.57100
O65         O  0.37262406  0.41239243  0.71977515    -0.56300
O66         O  0.38240681  0.53842112  0.85591988    -0.57500
C67         C  0.40259570  0.49160539  0.89584844     0.75200
O68         O  0.42719636  0.49462075  0.83185108    -0.58600
C69         C  0.38220267  0.53819297  0.83693777     0.75100
C70         C  0.44162666  0.54262790  0.86961879     0.77500
Cd71       Cd  0.41059015  0.51357083  0.85935640     1.37500
O72         O  0.38851921  0.50010576  0.88618013    -0.57500
O73         O  0.42430893  0.54254170  0.87737275    -0.56300
C74         C  0.41537144  0.47967213  0.83306090     0.77500
O75         O  0.44511806  0.52880900  0.85701638    -0.58700
O76         O  0.42014300  0.49412723  0.88895245    -0.57100
O77         O  0.39374832  0.52566189  0.82869703    -0.57100
O78         O  0.40271906  0.47994331  0.84719500    -0.56300
O79         O  0.38028322  0.48293971  0.63870730    -0.57500
C80         C  0.40019343  0.52572986  0.59406518     0.75200
O81         O  0.42372671  0.53028150  0.65760390    -0.58600
C82         C  0.38407103  0.48145356  0.65729470     0.75100
C83         C  0.43920218  0.47758171  0.62228160     0.77500
Cd84       Cd  0.40866424  0.50691808  0.63236204     1.37500
O85         O  0.38685678  0.51590015  0.60351147    -0.57500
O86         O  0.42087939  0.47599539  0.61750899    -0.56300
C87         C  0.40853229  0.54183453  0.65811978     0.77500
O88         O  0.44399113  0.49321724  0.63213854    -0.58700
O89         O  0.41739099  0.52639938  0.60229253    -0.57100
O90         O  0.39823489  0.49220743  0.66399121    -0.57100
O91         O  0.39438181  0.53786426  0.64602930    -0.56300
O92         O  0.37735543  0.65050316  0.75272653    -0.57500
C93         C  0.38295073  0.60055704  0.71571635     0.75200
O94         O  0.34106437  0.59407838  0.76536800    -0.58600
C95         C  0.36432941  0.65857772  0.76407952     0.75100
C96         C  0.32190344  0.62816624  0.71757598     0.77500
Cd97       Cd  0.35608674  0.62091091  0.74367092     1.37500
O98         O  0.37890830  0.61898175  0.71349147    -0.57500
O99         O  0.33511543  0.64121509  0.72149187    -0.56300
C100        C  0.35503841  0.59470573  0.77836424     0.77500
O101        O  0.32356722  0.61162047  0.72681276    -0.58700
O102        O  0.37630505  0.59261924  0.73154801    -0.57100
O103        O  0.34771828  0.64934656  0.76539089    -0.57100
O104        O  0.36835272  0.60807300  0.77584203    -0.56300
O105        O  0.51344328  0.61728889  0.37624907    -0.57500
C106        C  0.47680324  0.66973312  0.37182985     0.75200
O107        O  0.48951798  0.65301251  0.43167652    -0.58600
C108        C  0.52539407  0.61020874  0.38934303     0.75100
C109        C  0.53899458  0.67219411  0.39290635     0.77500
Cd110      Cd  0.50365685  0.64704271  0.39706534     1.37500
O111        O  0.47754810  0.65077471  0.37014069    -0.57500
O112        O  0.53186057  0.66117205  0.37916783    -0.56300
C113        C  0.47661363  0.63897391  0.43042708     0.77500
O114        O  0.52995899  0.67128787  0.40968518    -0.58700
O115        O  0.48837457  0.67764624  0.38461050    -0.57100
O116        O  0.52579381  0.61946148  0.40590118    -0.57100
O117        O  0.47715474  0.62859515  0.41456419    -0.56300
O118        O  0.65264052  0.76718538  0.36685526    -0.57500
C119        C  0.59846899  0.72982747  0.36635715     0.75200
O120        O  0.60072523  0.78673412  0.33089855    -0.58600
C121        C  0.65901388  0.78127326  0.35571109     0.75100
C122        C  0.63298361  0.73372510  0.31318745     0.77500
Cd123      Cd  0.62221196  0.75980112  0.34583075     1.37500
O124        O  0.61388773  0.73708043  0.37506985    -0.57500
O125        O  0.64058284  0.73251602  0.33054862    -0.56300
C126        C  0.59371133  0.79180270  0.34783785     0.77500
O127        O  0.62075920  0.74804322  0.31027970    -0.58700
O128        O  0.59416647  0.73706338  0.34938626    -0.57100
O129        O  0.64856992  0.78472826  0.34021643    -0.57100
O130        O  0.60041624  0.78264996  0.36303410    -0.56300
O131        O  0.50421451  0.90795671  0.37788468    -0.57500
C132        C  0.53964517  0.85308451  0.37378626     0.75200
O133        O  0.52767733  0.87959696  0.43283045    -0.58600
C134        C  0.49326553  0.91543101  0.39160738     0.75100
C135        C  0.48105679  0.85086698  0.39681404     0.77500
Cd136      Cd  0.51449093  0.87837955  0.39786477     1.37500
O137        O  0.53615667  0.87082877  0.36767515    -0.57500
O138        O  0.48400313  0.86399926  0.38342811    -0.56300
C139        C  0.54326197  0.88966643  0.42823742     0.77500
O140        O  0.49290193  0.85111210  0.41177700    -0.58700
O141        O  0.53179984  0.84816298  0.39030645    -0.57100
O142        O  0.49285282  0.90585943  0.40798771    -0.57100
O143        O  0.54485489  0.89468643  0.41000858    -0.56300
O144        O  0.37067320  0.75731944  0.36815353    -0.57500
C145        C  0.42280702  0.79313377  0.37004158     0.75200
O146        O  0.42309983  0.74176877  0.33088457    -0.58600
C147        C  0.36105382  0.74703489  0.35528990     0.75100
C148        C  0.38896202  0.79324846  0.31221660     0.77500
Cd149      Cd  0.39876900  0.76653331  0.34532716     1.37500
O150        O  0.40381806  0.79274500  0.37173170    -0.57500
O151        O  0.37994942  0.79337999  0.32886616    -0.56300
C152        C  0.42220817  0.73016523  0.34598711     0.77500
O153        O  0.40271368  0.78019462  0.31025624    -0.58700
O154        O  0.43035888  0.78070065  0.35793341    -0.57100
O155        O  0.36869050  0.74652347  0.33789294    -0.57100
O156        O  0.41045650  0.73535002  0.35991241    -0.56300
O157        O  0.14790684  0.76680355  0.12503407    -0.57500
C158        C  0.09610049  0.73333875  0.12141870     0.75200
O159        O  0.12006665  0.74231025  0.18334402    -0.58600
C160        C  0.15763694  0.77621782  0.13846322     0.75100
C161        C  0.09530602  0.79145006  0.15195121     0.77500
Cd162      Cd  0.12052532  0.75635005  0.14833976     1.37500
O163        O  0.11504875  0.73362640  0.11934960    -0.57500
O164        O  0.10944561  0.79015603  0.13935680    -0.56300
C165        C  0.13044685  0.72697851  0.17894701     0.77500
O166        O  0.09344404  0.77688401  0.16408023    -0.58700
O167        O  0.08889393  0.74421549  0.13508654    -0.57100
O168        O  0.15075500  0.77511414  0.15611012    -0.57100
O169        O  0.13612388  0.72562674  0.16093833    -0.56300
O170        O  0.01522607  0.62014647  0.11805905    -0.57500
C171        C  0.97823702  0.67026050  0.12403816     0.75200
O172        O  0.02448231  0.67754926  0.08295539    -0.58600
C173        C  0.02716282  0.61297457  0.10505141     0.75100
C174        C  0.97836222  0.64016509  0.06305999     0.77500
Cd175      Cd  0.00469949  0.64904808  0.09665365     1.37500
O176        O  0.97577789  0.65172481  0.12062502    -0.57500
O177        O  0.97923227  0.62986503  0.07889740    -0.56300
C178        C  0.03885501  0.67536817  0.09534642     0.77500
O179        O  0.99054394  0.65482279  0.06198700    -0.58700
O180        O  0.99368416  0.67813990  0.11637494    -0.57100
O181        O  0.02754342  0.62186989  0.08830017    -0.57100
O182        O  0.03763311  0.66064716  0.10723401    -0.56300
O183        O  0.87000404  0.75735882  0.12556268    -0.57500
C184        C  0.92228034  0.79439421  0.12320673     0.75200
O185        O  0.90328276  0.78037524  0.18259710    -0.58600
C186        C  0.86153295  0.74682829  0.13901577     0.75100
C187        C  0.92352575  0.73146515  0.14844117     0.77500
Cd188      Cd  0.89883632  0.76716697  0.14771709     1.37500
O189        O  0.90325414  0.79430018  0.12186661    -0.57500
O190        O  0.91201165  0.73581596  0.13395556    -0.56300
C191        C  0.88977384  0.79367350  0.18077460     0.77500
O192        O  0.92329621  0.74336346  0.16331226    -0.58700
O193        O  0.92994690  0.78152241  0.13476867    -0.57100
O194        O  0.86967096  0.74705425  0.15616256    -0.57100
O195        O  0.88037143  0.79386727  0.16430161    -0.56300
O196        O  0.00512318  0.90780365  0.12746540    -0.57500
C197        C  0.04133459  0.85500233  0.13103350     0.75200
O198        O  0.99445031  0.85302064  0.08988331    -0.58600
C199        C  0.99542906  0.91697978  0.11386816     0.75100
C200        C  0.04362637  0.88755165  0.07315408     0.77500
Cd201      Cd  0.01582186  0.87946502  0.10550499     1.37500
O202        O  0.04337817  0.87393492  0.13100518    -0.57500
O203        O  0.04592945  0.89398882  0.09083591    -0.56300
C204        C  0.98089123  0.85390419  0.10326278     0.77500
O205        O  0.02771881  0.87747118  0.06997933    -0.58700
O206        O  0.02685502  0.84818127  0.12083537    -0.57100
O207        O  0.99631976  0.90928656  0.09654394    -0.57100
O208        O  0.98335513  0.86692035  0.11685971    -0.56300
O209        O  0.36576830  0.25813159  0.62304607    -0.57500
C210        C  0.41966390  0.29300010  0.61851484     0.75200
O211        O  0.39863727  0.28259215  0.67862574    -0.58600
C212        C  0.35884643  0.24546297  0.63550653     0.75100
C213        C  0.42127109  0.23305444  0.64504001     0.77500
Cd214      Cd  0.39535643  0.26775366  0.64419231     1.37500
O215        O  0.40068371  0.29294859  0.61647708    -0.57500
O216        O  0.40904224  0.23661835  0.63093846    -0.56300
C217        C  0.38497359  0.29565380  0.67630796     0.77500
O218        O  0.42146940  0.24544833  0.65952654    -0.58700
O219        O  0.42677722  0.28124520  0.63149550    -0.57100
O220        O  0.36860684  0.24381478  0.65175515    -0.57100
O221        O  0.37566431  0.29492625  0.65978746    -0.56300
O222        O  0.51052735  0.11746757  0.61688867    -0.57500
C223        C  0.47621628  0.17183913  0.62160315     0.75200
O224        O  0.52258118  0.17183256  0.58017556    -0.58600
C225        C  0.52060379  0.10903889  0.60307258     0.75100
C226        C  0.47074468  0.13601886  0.56555846     0.77500
Cd227      Cd  0.49994114  0.14634309  0.59592664     1.37500
O228        O  0.48624899  0.17815361  0.60685439    -0.57500
O229        O  0.47020471  0.12890786  0.58310955    -0.56300
C230        C  0.53542142  0.17122877  0.59429342     0.77500
O231        O  0.48519298  0.14789323  0.56169858    -0.58700
O232        O  0.47728827  0.15317365  0.62530549    -0.57100
O233        O  0.51996585  0.11743327  0.58606608    -0.57100
O234        O  0.53216160  0.15858505  0.60807521    -0.56300
O235        O  0.61678227  0.22539115  0.61645200    -0.57500
C236        C  0.66149267  0.26992351  0.63658414     0.75200
O237        O  0.59960464  0.27910464  0.65464484    -0.58600
C238        C  0.59775070  0.22558252  0.61802438     0.75100
C239        C  0.62808857  0.22666387  0.67748119     0.77500
Cd240      Cd  0.62217639  0.25193528  0.64264446     1.37500
O241        O  0.65377189  0.25850893  0.62336132    -0.57500
O242        O  0.63745369  0.22432794  0.66118338    -0.56300
C243        C  0.59952468  0.28848819  0.63806312     0.77500
O244        O  0.61548595  0.24093744  0.67804649    -0.58700
O245        O  0.65126286  0.27212711  0.65238979    -0.57100
O246        O  0.59042312  0.23826825  0.63000709    -0.57100
O247        O  0.61044686  0.28119262  0.62434276    -0.56300
O248        O  0.50592614  0.40365327  0.61614929    -0.57500
C249        C  0.54489786  0.35059497  0.61281645     0.75200
O250        O  0.48924126  0.35192755  0.57838863    -0.58600
C251        C  0.49355571  0.41152220  0.60393662     0.75100
C252        C  0.54042037  0.38669134  0.56176814     0.77500
Cd253      Cd  0.51451313  0.37479991  0.59385505     1.37500
O254        O  0.53712234  0.36508375  0.62245970    -0.57500
O255        O  0.54140270  0.39447175  0.57905437    -0.56300
C256        C  0.48053332  0.34826190  0.59489756     0.77500
O257        O  0.52631252  0.37415203  0.55877273    -0.58700
O258        O  0.53813718  0.34737802  0.59542803    -0.57100
O259        O  0.49193476  0.40283012  0.58711493    -0.57100
O260        O  0.48772202  0.35650407  0.61040555    -0.56300
O261        O  0.38506464  0.11442288  0.27358151    -0.57500
C262        C  0.36709477  0.16445802  0.23376156     0.75200
O263        O  0.34242161  0.10499085  0.22214579    -0.58600
C264        C  0.37842467  0.09658616  0.27517985     0.75100
C265        C  0.32665159  0.13368678  0.27861943     0.77500
Cd266      Cd  0.35777571  0.12509814  0.25005173     1.37500
O267        O  0.38038993  0.15454111  0.24325875    -0.57500
O268        O  0.34420570  0.14101966  0.27965557    -0.56300
C269        C  0.35897412  0.10359740  0.21271991     0.77500
O270        O  0.32289549  0.12262535  0.26355447    -0.58700
O271        O  0.34986381  0.15637167  0.23285619    -0.57100
O272        O  0.36333176  0.09222614  0.26448156    -0.57100
O273        O  0.37397651  0.11248016  0.22038649    -0.56300
O274        O  0.38915844  0.01131479  0.10068743    -0.57500
C275        C  0.38658307  0.05170195  0.15111788     0.75200
O276        O  0.42041353  0.99408424  0.15472071    -0.58600
C277        C  0.40106823  0.99734128  0.09552556     0.75100
C278        C  0.44307020  0.04729268  0.12091938     0.77500
Cd279      Cd  0.40927339  0.02138099  0.13094548     1.37500
O280        O  0.37939903  0.04363811  0.13538540    -0.57500
O281        O  0.42689724  0.04692730  0.11088293    -0.56300
C282        C  0.40272086  0.99102732  0.16131631     0.77500
O283        O  0.44426131  0.03477611  0.13524533    -0.58700
O284        O  0.40381647  0.04601038  0.15675709    -0.57100
O285        O  0.41666552  0.99545440  0.10624419    -0.57100
O286        O  0.38899925  0.00167663  0.15372979    -0.56300
O287        O  0.38716712  0.91129668  0.21992403    -0.57500
C288        C  0.37025493  0.85953347  0.25867070     0.75200
O289        O  0.34325763  0.91920849  0.26794439    -0.58600
C290        C  0.37794028  0.92746470  0.21568960     0.75100
C291        C  0.32848936  0.88606671  0.21238096     0.77500
Cd292      Cd  0.35880340  0.89779777  0.24101642     1.37500
O293        O  0.38267128  0.86964894  0.24825979    -0.57500
O294        O  0.34695034  0.88180283  0.21061637    -0.56300
C295        C  0.35969881  0.92097548  0.27756179     0.77500
O296        O  0.32349302  0.89557763  0.22813205    -0.58700
O297        O  0.35258260  0.86661761  0.25961427    -0.57100
O298        O  0.36059646  0.92931706  0.22322533    -0.57100
O299        O  0.37469671  0.91181498  0.27038880    -0.56300
O300        O  0.38367828  0.01256696  0.39199355    -0.57500
C301        C  0.38407217  0.97402476  0.34050568     0.75200
O302        O  0.41808202  0.03175925  0.33958315    -0.58600
C303        C  0.39504763  0.02637151  0.39865705     0.75100
C304        C  0.43882297  0.98074309  0.37357272     0.77500
Cd305      Cd  0.40483558  0.00498732  0.36224854     1.37500
O306        O  0.37474261  0.98370616  0.35399779    -0.57500
O307        O  0.42180175  0.97932468  0.38198658    -0.56300
C308        C  0.40091982  0.03554923  0.33214381     0.77500
O309        O  0.44059111  0.99435345  0.36036291    -0.58700
O310        O  0.40235065  0.97851058  0.33780437    -0.57100
O311        O  0.41083878  0.02971646  0.38859753    -0.57100
O312        O  0.38619002  0.02566364  0.33889892    -0.56300
O313        O  0.36208388  0.14177885  0.46888432    -0.57500
C314        C  0.40327527  0.12123405  0.51230780     0.75200
O315        O  0.34125635  0.09563363  0.51463445    -0.58600
C316        C  0.34317762  0.13994924  0.46732717     0.75100
C317        C  0.37684690  0.08116236  0.46388099     0.77500
Cd318      Cd  0.36606344  0.11257499  0.49197944     1.37500
O319        O  0.39383074  0.13483354  0.50291541    -0.57500
O320        O  0.38531062  0.09814453  0.46434418    -0.56300
C321        C  0.34195774  0.10947407  0.52770779     0.77500
O322        O  0.36303181  0.07836473  0.47669104    -0.58700
O323        O  0.39568713  0.10378759  0.51147446    -0.57100
O324        O  0.33512657  0.12612170  0.47748922    -0.57100
O325        O  0.35386258  0.12386777  0.52425581    -0.56300
O326        O  0.25463232  0.13683171  0.64295389    -0.57500
C327        C  0.28700058  0.13264156  0.58842396     0.75200
O328        O  0.23942329  0.17591796  0.59031772    -0.58600
C329        C  0.24280828  0.14938280  0.65099716     0.75100
C330        C  0.29195358  0.19040421  0.62228072     0.77500
Cd331      Cd  0.26313648  0.15864540  0.61353767     1.37500
O332        O  0.27544255  0.14596263  0.58153321    -0.57500
O333        O  0.29269944  0.17317320  0.63014046    -0.56300
C334        C  0.22812587  0.16062435  0.58838264     0.77500
O335        O  0.27740847  0.19344621  0.61034552    -0.58700
O336        O  0.28729097  0.13059671  0.60731350    -0.57100
O337        O  0.24111536  0.16599574  0.64192188    -0.57100
O338        O  0.23289165  0.14517987  0.59833759    -0.56300
O339        O  0.15093623  0.13860378  0.53101874    -0.57500
C340        C  0.11082258  0.12156470  0.48171394     0.75200
O341        O  0.17516490  0.09781021  0.48272706    -0.58600
C342        C  0.16973848  0.14093855  0.52904147     0.75100
C343        C  0.13956138  0.08201029  0.53181559     0.77500
Cd344      Cd  0.14796798  0.11371583  0.50312378     1.37500
O345        O  0.11944922  0.13506996  0.49203011    -0.57500
O346        O  0.13053473  0.09864597  0.53141097    -0.56300
C347        C  0.17482661  0.11148341  0.46944044     0.77500
O348        O  0.15256542  0.07933360  0.51815018    -0.58700
O349        O  0.11922697  0.10451251  0.48184510    -0.57100
O350        O  0.17768079  0.13227765  0.51425878    -0.57100
O351        O  0.16195678  0.12526413  0.47166056    -0.56300
O352        O  0.26599813  0.13811440  0.35585519    -0.57500
C353        C  0.23079944  0.13520491  0.40923999     0.75200
O354        O  0.27531881  0.17950002  0.40728052    -0.58600
C355        C  0.27417912  0.15204635  0.34572114     0.75100
C356        C  0.22441211  0.19165040  0.37348535     0.77500
Cd357      Cd  0.25371381  0.16107998  0.38294436     1.37500
O358        O  0.23001372  0.13269506  0.39039729    -0.57500
O359        O  0.22297819  0.17369548  0.36751625    -0.56300
C360        C  0.28837912  0.16563402  0.40796566     0.77500
O361        O  0.23980231  0.19581512  0.38397232    -0.58700
O362        O  0.24241942  0.14885860  0.41540583    -0.57100
O363        O  0.27159107  0.16964496  0.35230618    -0.57100
O364        O  0.28583463  0.15088468  0.39630787    -0.56300
O365        O  0.75361641  0.64157048  0.13853981    -0.57500
C366        C  0.78648930  0.64125130  0.08223165     0.75200
O367        O  0.74045708  0.68097383  0.08580657    -0.58600
C368        C  0.74631473  0.65553799  0.14929020     0.75100
C369        C  0.79330739  0.69524759  0.12038154     0.77500
Cd370      Cd  0.76365408  0.66483274  0.11062850     1.37500
O371        O  0.78695141  0.63661038  0.10070861    -0.57500
O372        O  0.79542221  0.67675901  0.12417223    -0.56300
C373        C  0.72710227  0.66735870  0.08713038     0.77500
O374        O  0.77684910  0.70014758  0.11202989    -0.58700
O375        O  0.77526795  0.65577795  0.07766896    -0.57100
O376        O  0.74829447  0.67311040  0.14239442    -0.57100
O377        O  0.73007306  0.65394030  0.10020627    -0.56300
O378        O  0.86564535  0.64436093  0.97038262    -0.57500
C379        C  0.91011464  0.62447360  0.01097831     0.75200
O380        O  0.85480154  0.60061187  0.02117817    -0.58600
C381        C  0.85285539  0.63527308  0.95944322     0.75100
C382        C  0.88252848  0.57979511  0.96414744     0.77500
Cd383      Cd  0.87307702  0.61329944  0.99045663     1.37500
O384        O  0.90217954  0.63619167  0.99823216    -0.57500
O385        O  0.89329191  0.59546444  0.96528550    -0.56300
C386        C  0.84276376  0.61534115  0.02184391     0.77500
O387        O  0.86813746  0.57865376  0.97658934    -0.58700
O388        O  0.90092967  0.60805495  0.01384206    -0.57100
O389        O  0.85031680  0.61676591  0.96274022    -0.57100
O390        O  0.84458877  0.62820422  0.00807593    -0.56300
O391        O  0.72512282  0.63425340  0.88815229    -0.57500
C392        C  0.77083264  0.65178835  0.84533493     0.75200
O393        O  0.73899163  0.69447242  0.89058065    -0.58600
C394        C  0.72451645  0.63637474  0.90703510     0.75100
C395        C  0.78994340  0.65733725  0.90570380     0.77500
Cd396      Cd  0.75255174  0.66010932  0.88366695     1.37500
O397        O  0.76008136  0.63879553  0.85425906    -0.57500
O398        O  0.78145428  0.64253166  0.89733818    -0.56300
C399        C  0.72674568  0.69405157  0.87595862     0.77500
O400        O  0.78089146  0.67407393  0.90432318    -0.58700
O401        O  0.77220528  0.66874268  0.85383435    -0.57100
O402        O  0.73712041  0.64841890  0.91458600    -0.57100
O403        O  0.72714119  0.67848635  0.86517170    -0.56300
O404        O  0.64987958  0.64349505  0.02856398    -0.57500
C405        C  0.60639981  0.62259544  0.98420950     0.75200
O406        O  0.66978336  0.59980154  0.98144605    -0.58600
C407        C  0.66877539  0.64109016  0.02968786     0.75100
C408        C  0.63556139  0.58224392  0.03216088     0.77500
Cd409      Cd  0.64441432  0.61481697  0.00437629     1.37500
O410        O  0.61430931  0.63567895  0.99561741    -0.57500
O411        O  0.62851026  0.59977974  0.03377412    -0.56300
C412        C  0.66916388  0.61396322  0.96871613     0.77500
O413        O  0.64672055  0.57921161  0.01706416    -0.58700
O414        O  0.61561736  0.60600213  0.98322673    -0.57100
O415        O  0.67606868  0.62742493  0.01880337    -0.57100
O416        O  0.65662096  0.62781929  0.97210332    -0.56300
O417        O  0.12913228  0.11726221  0.71615411    -0.57500
C418        C  0.14429605  0.16087248  0.76231688     0.75200
O419        O  0.16985032  0.09730365  0.76562861    -0.58600
C420        C  0.13042548  0.09829754  0.71700209     0.75100
C421        C  0.18788492  0.13298858  0.71670313     0.77500
Cd422      Cd  0.15473535  0.12313404  0.74333370     1.37500
O423        O  0.13121249  0.15076672  0.75276670    -0.57500
O424        O  0.17027024  0.13979432  0.71486518    -0.56300
C425        C  0.15584439  0.09800809  0.77854077     0.77500
O426        O  0.19076794  0.12125664  0.73141876    -0.58700
O427        O  0.16193737  0.15368823  0.76229301    -0.57100
O428        O  0.14152478  0.09131964  0.73066176    -0.57100
O429        O  0.14233592  0.11105750  0.77571423    -0.56300
O430        O  0.13919118  0.01625300  0.60708975    -0.57500
C431        C  0.14096465  0.97692527  0.65753683     0.75200
O432        O  0.09799035  0.02295964  0.66004311    -0.58600
C433        C  0.12576427  0.02613168  0.59782742     0.75100
C434        C  0.08318268  0.97583374  0.62197283     0.77500
Cd435      Cd  0.11557374  0.00309764  0.63351997     1.37500
O436        O  0.14065779  0.97526821  0.63861349    -0.57500
O437        O  0.10071123  0.97503018  0.61465942    -0.56300
C438        C  0.11152457  0.03645339  0.66067663     0.77500
O439        O  0.08016830  0.98987715  0.63444769    -0.58700
O440        O  0.13079202  0.99110981  0.66478928    -0.57100
O441        O  0.10810081  0.02444565  0.60471147    -0.57100
O442        O  0.12594418  0.03469465  0.64844587    -0.56300
O443        O  0.12804182  0.90038468  0.77649555    -0.57500
C444        C  0.14942831  0.85811977  0.73397686     0.75200
O445        O  0.17471776  0.92024387  0.73116135    -0.58600
C446        C  0.13053518  0.91919537  0.77792351     0.75100
C447        C  0.18884453  0.88659823  0.78345315     0.77500
Cd448      Cd  0.15784750  0.89561563  0.75413215     1.37500
O449        O  0.13580407  0.86739697  0.74348409    -0.57500
O450        O  0.17182759  0.87807195  0.78306826    -0.56300
C451        C  0.16052355  0.91986800  0.71839410     0.77500
O452        O  0.19204190  0.89929808  0.76965845    -0.58700
O453        O  0.16687520  0.86581243  0.73484680    -0.57100
O454        O  0.14494229  0.92665478  0.76811626    -0.57100
O455        O  0.14604233  0.90816088  0.72216362    -0.56300
O456        O  0.13034186  0.00155376  0.88737605    -0.57500
C457        C  0.13274077  0.03792047  0.83560595     0.75200
O458        O  0.09090367  0.98964143  0.83463410    -0.58600
C459        C  0.11723048  0.99137312  0.89676538     0.75100
C460        C  0.07473578  0.03956189  0.86901251     0.77500
Cd461      Cd  0.10728912  0.01201010  0.85976538     1.37500
O462        O  0.12118724  0.02477557  0.82831086    -0.57500
O463        O  0.09166927  0.03999052  0.87762413    -0.56300
C464        C  0.10511343  0.97692948  0.83471269     0.77500
O465        O  0.07223114  0.02572400  0.85618040    -0.58700
O466        O  0.13371483  0.03855678  0.85457187    -0.57100
O467        O  0.09965411  0.99163272  0.88937709    -0.57100
O468        O  0.11945037  0.98012897  0.84678479    -0.56300
O469        O  0.39756020  0.88744015  0.99032966    -0.57500
C470        C  0.34927795  0.88417296  0.02844705     0.75200
O471        O  0.37102089  0.94633565  0.01447305    -0.58600
C472        C  0.40703764  0.90054535  0.98030074     0.75100
C473        C  0.34351843  0.91250151  0.96910735     0.77500
Cd474      Cd  0.37112838  0.91062697  0.00223202     1.37500
O475        O  0.36832297  0.88372590  0.02805274    -0.57500
O476        O  0.35675768  0.89899478  0.97073226    -0.56300
C477        C  0.38140861  0.94259454  0.02999677     0.77500
O478        O  0.34348379  0.92611724  0.98242507    -0.58700
O479        O  0.34074849  0.89587790  0.01624679    -0.57100
O480        O  0.40033565  0.91830129  0.98145412    -0.57100
O481        O  0.38715361  0.92461787  0.03189227    -0.56300
O482        O  0.26456094  0.88105095  0.13627433    -0.57500
C483        C  0.23021269  0.88385456  0.08452339     0.75200
O484        O  0.27672207  0.84280664  0.08189979    -0.58600
C485        C  0.27533243  0.86826315  0.14538552     0.75100
C486        C  0.22603741  0.82678717  0.11828465     0.77500
Cd487      Cd  0.25507532  0.85786618  0.10846856     1.37500
O488        O  0.23050301  0.88539101  0.10344352    -0.57500
O489        O  0.22457755  0.84498169  0.12339039    -0.56300
C490        C  0.29000191  0.85650071  0.08327004     0.77500
O491        O  0.24181945  0.82219254  0.10863165    -0.58700
O492        O  0.24228723  0.87141540  0.07687830    -0.57100
O493        O  0.27568536  0.85082407  0.13779969    -0.57100
O494        O  0.28736702  0.86953253  0.09678666    -0.56300
O495        O  0.25207007  0.88090844  0.85870107    -0.57500
C496        C  0.28700925  0.88728287  0.91038164     0.75200
O497        O  0.24097671  0.84372019  0.91336753    -0.58600
C498        C  0.24137788  0.86731801  0.85058988     0.75100
C499        C  0.29115958  0.82841056  0.87783906     0.77500
Cd500      Cd  0.26255704  0.85976498  0.88748374     1.37500
O501        O  0.28595216  0.88904925  0.89150007    -0.57500
O502        O  0.29059184  0.84527420  0.86917974    -0.56300
C503        C  0.22752970  0.85720831  0.91257147     0.77500
O504        O  0.27795009  0.82553303  0.89123020    -0.58700
O505        O  0.27617610  0.87382128  0.91818117    -0.57100
O506        O  0.24158284  0.85037198  0.85915926    -0.57100
O507        O  0.23003687  0.87100700  0.89979793    -0.56300
O508        O  0.11541743  0.88858878  0.00570510    -0.57500
C509        C  0.16878413  0.88097216  0.96944094     0.75200
O510        O  0.14662943  0.94239880  0.97803066    -0.58600
C511        C  0.10911712  0.90249032  0.01713293     0.75100
C512        C  0.17296826  0.90954322  0.02624848     0.77500
Cd513      Cd  0.14511879  0.90810507  0.99339276     1.37500
O514        O  0.17602533  0.89537247  0.97937652    -0.57500
O515        O  0.15917360  0.89648269  0.02480645    -0.56300
C516        C  0.13455367  0.93817507  0.96387424     0.77500
O517        O  0.17336434  0.92311324  0.01286905    -0.58700
O518        O  0.14993178  0.87815012  0.97087437    -0.57100
O519        O  0.11882816  0.91884810  0.01648181    -0.57100
O520        O  0.12750847  0.92054663  0.96389629    -0.56300
O521        O  0.39921598  0.72856917  0.87200315    -0.57500
C522        C  0.35763241  0.77633694  0.85562351     0.75200
O523        O  0.42047903  0.77720080  0.83006949    -0.58600
C524        C  0.41824253  0.72976561  0.87180811     0.75100
C525        C  0.38452620  0.72705788  0.81460698     0.77500
Cd526      Cd  0.39448890  0.75548640  0.84619941     1.37500
O527        O  0.36728006  0.76685137  0.86906411    -0.57500
O528        O  0.37526739  0.72800007  0.83110784    -0.56300
C529        C  0.42007595  0.79047844  0.84373743     0.77500
O530        O  0.39821296  0.74011146  0.81197606    -0.58700
O531        O  0.36470790  0.77519634  0.83805685    -0.57100
O532        O  0.42570663  0.74360369  0.86127102    -0.57100
O533        O  0.40713721  0.78807279  0.85742207    -0.56300
O534        O  0.50630446  0.61890163  0.87349482    -0.57500
C535        C  0.54103927  0.67310038  0.87122523     0.75200
O536        O  0.48977691  0.67212901  0.91089605    -0.58600
C537        C  0.49344164  0.61137829  0.88537897     0.75100
C538        C  0.54127126  0.63802131  0.92775432     0.77500
Cd539      Cd  0.51425062  0.64865235  0.89505799     1.37500
O540        O  0.53844645  0.65476674  0.86673730    -0.57500
O541        O  0.54202925  0.63029755  0.91049071    -0.56300
C542        C  0.47999874  0.67496238  0.89477916     0.77500
O543        O  0.52737943  0.65078106  0.93042220    -0.58700
O544        O  0.53114781  0.67969538  0.88593636    -0.57100
O545        O  0.49067358  0.62100119  0.90151344    -0.57100
O546        O  0.48584032  0.66546425  0.87943607    -0.56300
O547        O  0.51319009  0.90171267  0.87230217    -0.57500
C548        C  0.47635944  0.85118128  0.86655210     0.75200
O549        O  0.52193476  0.84764070  0.91102034    -0.58600
C550        C  0.52332900  0.91049543  0.88585693     0.75100
C551        C  0.47228998  0.88334100  0.92481748     0.77500
Cd552      Cd  0.50134882  0.87385145  0.89396783     1.37500
O553        O  0.47558125  0.87017685  0.86668443    -0.57500
O554        O  0.47404416  0.89294577  0.90861972    -0.56300
C555        C  0.53617908  0.84883031  0.89839269     0.77500
O556        O  0.48469602  0.86911750  0.92737602    -0.58700
O557        O  0.48970537  0.84330952  0.87744901    -0.57100
O558        O  0.52245936  0.90266645  0.90315242    -0.57100
O559        O  0.53423307  0.86167716  0.88458918    -0.56300
O560        O  0.61654019  0.79522675  0.87881762    -0.57500
C561        C  0.66096699  0.74938361  0.86197246     0.75200
O562        O  0.59843917  0.74572328  0.83665838    -0.58600
C563        C  0.59760633  0.79285149  0.87854289     0.75100
C564        C  0.63147906  0.79733269  0.82075146     0.77500
Cd565      Cd  0.62308221  0.76882382  0.85278631     1.37500
O566        O  0.65154468  0.75925402  0.87523059    -0.57500
O567        O  0.63871430  0.79871734  0.83821093    -0.56300
C568        C  0.59896182  0.73288566  0.85074811     0.77500
O569        O  0.62006391  0.78234649  0.81760631    -0.58700
O570        O  0.65324956  0.74958602  0.84460421    -0.57100
O571        O  0.59107801  0.77891318  0.86751898    -0.57100
O572        O  0.61111260  0.73638604  0.86494147    -0.56300
O573        O  0.77062369  0.13963723  0.13809798    -0.57500
C574        C  0.73310278  0.13555019  0.08651079     0.75200
O575        O  0.74731426  0.19756445  0.10836327    -0.58600
C576        C  0.78129952  0.15312090  0.14640783     0.75100
C577        C  0.79223414  0.16413294  0.08272382     0.77500
Cd578      Cd  0.75911326  0.16176511  0.10989465     1.37500
O579        O  0.73262015  0.13509634  0.10550597    -0.57500
O580        O  0.79118823  0.15105754  0.09643227    -0.56300
C581        C  0.73191479  0.19442252  0.11912075     0.77500
O582        O  0.77837155  0.17719956  0.08215926    -0.58700
O583        O  0.74635768  0.14669759  0.07879482    -0.57100
O584        O  0.78067680  0.17029585  0.13835922    -0.57100
O585        O  0.72984654  0.17673573  0.12568807    -0.56300
O586        O  0.90020760  0.13261843  0.99053274    -0.57500
C587        C  0.84687508  0.13768004  0.02278042     0.75200
O588        O  0.84714134  0.09495109  0.97474268    -0.58600
C589        C  0.90934372  0.11970210  0.97997553     0.75100
C590        C  0.87871567  0.07903054  0.02756711     0.77500
Cd591      Cd  0.87108285  0.11090331  0.99872518     1.37500
O592        O  0.86589192  0.13915878  0.02278962    -0.57500
O593        O  0.88843566  0.09534004  0.02721163    -0.56300
C594        C  0.84699507  0.10983568  0.96284145     0.77500
O595        O  0.86537271  0.07690442  0.01412277    -0.58700
O596        O  0.83947196  0.12467376  0.01117618    -0.57100
O597        O  0.90103012  0.10257925  0.97886289    -0.57100
O598        O  0.85881221  0.12417198  0.96693414    -0.56300
O599        O  0.79197919  0.13773958  0.88478076    -0.57500
C600        C  0.74244750  0.15464856  0.84542696     0.75200
O601        O  0.74087337  0.17750992  0.90770403    -0.58600
C602        C  0.79125662  0.13667810  0.90372836     0.75100
C603        C  0.78999862  0.19692675  0.87494456     0.77500
Cd604      Cd  0.76395061  0.16285366  0.88232778     1.37500
O605        O  0.75333383  0.14132499  0.85364284    -0.57500
O606        O  0.78920486  0.18171973  0.86366749    -0.56300
C607        C  0.72955687  0.16213088  0.90823052     0.77500
O608        O  0.77805771  0.19701101  0.88974762    -0.58700
O609        O  0.74246799  0.17161991  0.85394007    -0.57100
O610        O  0.77757797  0.14671260  0.91211146    -0.57100
O611        O  0.73376553  0.14794248  0.89638141    -0.56300
O612        O  0.62120909  0.13097171  0.00223830    -0.57500
C613        C  0.67297391  0.13506382  0.96613575     0.75200
O614        O  0.67619329  0.09515701  0.01495278    -0.58600
C615        C  0.61336887  0.11779412  0.01358471     0.75100
C616        C  0.63900376  0.07713917  0.96519938     0.77500
Cd617      Cd  0.64997466  0.10952310  0.99222041     1.37500
O618        O  0.65440640  0.13853998  0.96874356    -0.57500
O619        O  0.63071501  0.09418684  0.96496341    -0.56300
C620        C  0.67650758  0.11024187  0.02659401     0.77500
O621        O  0.65250599  0.07459512  0.97842174    -0.58700
O622        O  0.68029273  0.12033356  0.97549344    -0.57100
O623        O  0.62202345  0.10088918  0.01391203    -0.57100
O624        O  0.66407073  0.12407982  0.02279985    -0.56300
O625        O  0.50988363  0.12170995  0.12013327    -0.57500
C626        C  0.54497895  0.17583254  0.12322637     0.75200
O627        O  0.53300390  0.15074070  0.06320418    -0.58600
C628        C  0.49937220  0.11290484  0.10684349     0.75100
C629        C  0.48529298  0.17549528  0.09836005     0.77500
Cd630      Cd  0.52017098  0.15023007  0.09841624     1.37500
O631        O  0.53502147  0.18198110  0.10834964    -0.57500
O632        O  0.48826083  0.16200439  0.11134255    -0.56300
C633        C  0.54798659  0.13956737  0.06696813     0.77500
O634        O  0.49806914  0.17682879  0.08427741    -0.58700
O635        O  0.54349619  0.15727065  0.12733181    -0.57100
O636        O  0.49953401  0.12094149  0.08961339    -0.57100
O637        O  0.54952991  0.13342356  0.08484592    -0.56300
O638        O  0.37057226  0.26606515  0.12631812    -0.57500
C639        C  0.42561854  0.23133636  0.12467820     0.75200
O640        O  0.42505547  0.28079044  0.16260745    -0.58600
C641        C  0.36227817  0.27714071  0.13944180     0.75100
C642        C  0.38911670  0.23050880  0.18177237     0.77500
Cd643      Cd  0.39977794  0.25676381  0.14846607     1.37500
O644        O  0.40696862  0.23231198  0.12060736    -0.57500
O645        O  0.38163506  0.22875594  0.16440657    -0.56300
C646        C  0.42519041  0.29210006  0.14727474     0.77500
O647        O  0.40159541  0.24475863  0.18415367    -0.58700
O648        O  0.43166645  0.24183125  0.13922109    -0.57100
O649        O  0.37096544  0.27764326  0.15631354    -0.57100
O650        O  0.41296111  0.28755443  0.13343479    -0.56300
O651        O  0.65716676  0.25850368  0.12208353    -0.57500
C652        C  0.60299486  0.29404691  0.11673141     0.75200
O653        O  0.60205299  0.24852271  0.15971170    -0.58600
C654        C  0.66491499  0.24786167  0.13588842     0.75100
C655        C  0.63724155  0.29729854  0.17515063     0.77500
Cd656      Cd  0.62783488  0.26972777  0.14302930     1.37500
O657        O  0.62196790  0.29413309  0.11452301    -0.57500
O658        O  0.64531325  0.29833191  0.15804106    -0.56300
C659        C  0.60186039  0.23548977  0.14583797     0.77500
O660        O  0.62470515  0.28317654  0.17774933    -0.58700
O661        O  0.59623388  0.28266975  0.13022990    -0.57100
O662        O  0.65589545  0.24829708  0.15254816    -0.57100
O663        O  0.61399146  0.23809600  0.13146943    -0.56300
O664        O  0.47877363  0.37158149  0.11934920    -0.57500
C665        C  0.52849172  0.41311913  0.10525007     0.75200
O666        O  0.52869091  0.34856681  0.08002590    -0.58600
C667        C  0.48150612  0.35310944  0.12276890     0.75100
C668        C  0.48064821  0.38445402  0.06312255     0.77500
Cd669      Cd  0.50806250  0.37550062  0.09604750     1.37500
O670        O  0.51823059  0.40390825  0.11843025    -0.57500
O671        O  0.48218339  0.39470519  0.07893414    -0.56300
C672        C  0.54296946  0.35010339  0.09262354     0.77500
O673        O  0.49273392  0.36979057  0.06172967    -0.58700
O674        O  0.52869498  0.40506270  0.08808416    -0.57100
O675        O  0.49752684  0.34576444  0.11584207    -0.57100
O676        O  0.54127061  0.36369504  0.10573195    -0.56300
O677        O  0.63948402  0.37156821  0.24118455    -0.57500
C678        C  0.63716633  0.42343714  0.27843959     0.75200
O679        O  0.69673841  0.40265992  0.26529637    -0.58600
C680        C  0.65252008  0.36298478  0.23027662     0.75100
C681        C  0.66333530  0.42637151  0.21835724     0.77500
Cd682      Cd  0.66186767  0.39961912  0.25186480     1.37500
O683        O  0.63451157  0.40460234  0.27741403    -0.57500
O684        O  0.64898003  0.41419778  0.22117216    -0.56300
C685        C  0.69430408  0.38943292  0.27873884     0.77500
O686        O  0.67806712  0.42547092  0.23045002    -0.58700
O687        O  0.65005578  0.43084087  0.26672416    -0.57100
O688        O  0.66976578  0.37114716  0.23002771    -0.57100
O689        O  0.67738194  0.38076856  0.27910090    -0.56300
O690        O  0.63746094  0.50720055  0.38758063    -0.57500
C691        C  0.64045453  0.54653794  0.33800033     0.75200
O692        O  0.60008285  0.49743145  0.33352356    -0.58600
C693        C  0.62369035  0.49852104  0.39751529     0.75100
C694        C  0.58166605  0.54605489  0.36987078     0.77500
Cd695      Cd  0.61483304  0.51934874  0.36035651     1.37500
O696        O  0.64197818  0.54572652  0.35692279    -0.57500
O697        O  0.59880375  0.54712128  0.37807280    -0.56300
C698        C  0.61413191  0.48456069  0.33419331     0.77500
O699        O  0.57932450  0.53189278  0.35735935    -0.58700
O700        O  0.62801576  0.53464228  0.33003819    -0.57100
O701        O  0.60603840  0.50032861  0.39053580    -0.57100
O702        O  0.62751696  0.48742099  0.34738910    -0.56300
O703        O  0.64084396  0.48594439  0.14196652    -0.57500
C704        C  0.61840104  0.52898183  0.09906764     0.75200
O705        O  0.57670411  0.49423902  0.13965181    -0.58600
C706        C  0.63713366  0.48325228  0.16041577     0.75100
C707        C  0.60976016  0.54375199  0.16225344     0.77500
Cd708      Cd  0.61132285  0.50880670  0.13667580     1.37500
O709        O  0.63265737  0.51973604  0.10779449    -0.57500
O710        O  0.62325063  0.54145306  0.14910360    -0.56300
C711        C  0.57955767  0.48080130  0.12649518     0.77500
O712        O  0.59593444  0.53060141  0.16273342    -0.58700
O713        O  0.60134041  0.52777484  0.10738665    -0.57100
O714        O  0.62239645  0.49276499  0.16753262    -0.57100
O715        O  0.59654180  0.48093036  0.11798943    -0.56300
O716        O  0.63326331  0.62273583  0.21797625    -0.57500
C717        C  0.65219685  0.66599865  0.26230026     0.75200
O718        O  0.67724925  0.60475411  0.26718132    -0.58600
C719        C  0.63446025  0.60375603  0.21832359     0.75100
C720        C  0.69375986  0.63658199  0.21597130     0.77500
Cd721      Cd  0.66063999  0.62804391  0.24315841     1.37500
O722        O  0.63892553  0.65766254  0.25138235    -0.57500
O723        O  0.67701534  0.64551594  0.21527133    -0.56300
C724        C  0.66229206  0.60405941  0.27898743     0.77500
O725        O  0.69565370  0.62354858  0.22968000    -0.58700
O726        O  0.66881588  0.65690895  0.26346547    -0.57100
O727        O  0.64670544  0.59640032  0.23077904    -0.57100
O728        O  0.64726472  0.61476429  0.27441992    -0.56300
O729        O  0.15416606  0.75542733  0.62305653    -0.57500
C730        C  0.10328603  0.78985835  0.61671912     0.75200
O731        O  0.09596504  0.74710893  0.65893466    -0.58600
C732        C  0.16343062  0.74562949  0.63649610     0.75100
C733        C  0.13441045  0.79294574  0.67796640     0.77500
Cd734      Cd  0.12562780  0.76547455  0.64510532     1.37500
O735        O  0.12191787  0.79285000  0.61942141    -0.57500
O736        O  0.14267060  0.79383476  0.66098652    -0.56300
C737        C  0.09841326  0.73165136  0.64807859     0.77500
O738        O  0.12163400  0.77895814  0.68024461    -0.58700
O739        O  0.09587101  0.77499575  0.62574154    -0.57100
O740        O  0.15521300  0.74545157  0.65361534    -0.57100
O741        O  0.11409564  0.73136644  0.63735222    -0.56300
O742        O  0.01847782  0.90154716  0.61518649    -0.57500
C743        C  0.98202956  0.84783244  0.61913572     0.75200
O744        O  0.99399061  0.86767144  0.55957744    -0.58600
C745        C  0.02984433  0.90921070  0.60190359     0.75100
C746        C  0.04279391  0.84623489  0.59441856     0.77500
Cd747      Cd  0.00806366  0.87213614  0.59419099     1.37500
O748        O  0.98286737  0.86661962  0.62228027    -0.57500
O749        O  0.03767050  0.85688879  0.60924795    -0.56300
C750        C  0.98082630  0.88129778  0.56141612     0.77500
O751        O  0.03189725  0.84754527  0.57881881    -0.58700
O752        O  0.99327716  0.84131009  0.60539542    -0.57100
O753        O  0.03029319  0.90000836  0.58532596    -0.57100
O754        O  0.98069356  0.89062839  0.57791085    -0.56300
O755        O  0.86389998  0.76696483  0.62364364    -0.57500
C756        C  0.91378948  0.72630841  0.62455550     0.75200
O757        O  0.91488416  0.78565887  0.66004176    -0.58600
C758        C  0.85709208  0.77980898  0.63593590     0.75100
C759        C  0.88154222  0.73195518  0.67760809     0.77500
Cd760      Cd  0.89348099  0.75802059  0.64537533     1.37500
O761        O  0.90247196  0.73821210  0.61483475    -0.57500
O762        O  0.87245841  0.73281408  0.66095919    -0.56300
C763        C  0.92445140  0.78854899  0.64385511     0.77500
O764        O  0.89587409  0.74439875  0.68008245    -0.58700
O765        O  0.91488938  0.72898800  0.64327612    -0.57100
O766        O  0.86698671  0.78184216  0.65202145    -0.57100
O767        O  0.91952187  0.77770026  0.62912029    -0.56300
O768        O  0.00553675  0.61926603  0.62110792    -0.57500
C769        C  0.03903615  0.67426831  0.62271138     0.75200
O770        O  0.02417824  0.65297595  0.56411218    -0.58600
C771        C  0.99326448  0.61104806  0.60901223     0.75100
C772        C  0.97539178  0.67111732  0.60198588     0.77500
Cd773      Cd  0.01232932  0.64876942  0.59926913     1.37500
O774        O  0.03804850  0.65556865  0.62626639    -0.57500
O775        O  0.98362465  0.66217731  0.61653243    -0.56300
C776        C  0.03749274  0.63939586  0.56528176     0.77500
O777        O  0.98451431  0.67009543  0.58528127    -0.58700
O778        O  0.02789884  0.68064547  0.60875833    -0.57100
O779        O  0.99080629  0.61996863  0.59242771    -0.57100
O780        O  0.03849110  0.62998263  0.58169603    -0.56300
O781        O  0.28024617  0.37194163  0.07847944    -0.57500
C782        C  0.24613365  0.37112362  0.14790325     0.75200
O783        O  0.23623159  0.37608150  0.09602081    -0.58600
C784        C  0.29198646  0.38544798  0.08475381     0.75100
C785        C  0.29510455  0.32964492  0.11968302     0.77500
Cd786      Cd  0.26651519  0.36129180  0.11043573     1.37500
O787        O  0.25766266  0.38351193  0.13910130    -0.57500
O788        O  0.29653892  0.34736958  0.12632190    -0.56300
C789        C  0.23185901  0.36171355  0.08438819     0.77500
O790        O  0.27975079  0.32590093  0.10895755    -0.58700
O791        O  0.24481435  0.35395022  0.13978885    -0.57100
O792        O  0.29180811  0.38869780  0.10350475    -0.57100
O793        O  0.24302883  0.34627181  0.08528043    -0.56300
O794        O  0.15497941  0.38310024  0.02435037    -0.57500
C795        C  0.11221360  0.40291278  0.97853022     0.75200
O796        O  0.15274633  0.44612098  0.01596245    -0.58600
C797        C  0.17357608  0.38698880  0.02637855     0.75100
C798        C  0.17427041  0.41363166  0.96559045     0.77500
Cd799      Cd  0.14883215  0.41205855  0.00050365     1.37500
O800        O  0.11954904  0.39036751  0.99087493    -0.57500
O801        O  0.16268205  0.39902569  0.96931257    -0.56300
C802        C  0.13847269  0.44392075  0.02836119     0.77500
O803        O  0.17376531  0.42834461  0.97767210    -0.58700
O804        O  0.12132764  0.41960773  0.97724624    -0.57100
O805        O  0.18023548  0.40155252  0.01628428    -0.57100
O806        O  0.12860402  0.42774393  0.02698392    -0.56300
O807        O  0.26505696  0.38302951  0.85452176    -0.57500
C808        C  0.23041937  0.38689503  0.90752171     0.75200
O809        O  0.24006044  0.32598412  0.88290775    -0.58600
C810        C  0.27528073  0.36950607  0.84583278     0.75100
C811        C  0.28953525  0.35950406  0.90828340     0.77500
Cd812      Cd  0.25440204  0.36098338  0.88283897     1.37500
O813        O  0.23253002  0.39077281  0.88902523    -0.57500
O814        O  0.28601409  0.37379163  0.89632910    -0.56300
C815        C  0.22458432  0.33048524  0.87269227     0.77500
O816        O  0.27698078  0.34509152  0.90828350    -0.58700
O817        O  0.23948205  0.37162361  0.91412525    -0.57100
O818        O  0.27452916  0.35223671  0.85370505    -0.57100
O819        O  0.22355348  0.34860167  0.86708239    -0.56300
O820        O  0.40371002  0.38463355  0.99955843    -0.57500
C821        C  0.35036795  0.38018092  0.96509326     0.75200
O822        O  0.34905281  0.42212245  0.01226479    -0.58600
C823        C  0.41256135  0.39809540  0.00978466     0.75100
C824        C  0.38323191  0.43847730  0.96220904     0.77500
Cd825      Cd  0.37456930  0.40629074  0.99010351     1.37500
O826        O  0.36938640  0.37976587  0.96373727    -0.57500
O827        O  0.39255067  0.42197402  0.96259280    -0.56300
C828        C  0.34957813  0.40817467  0.02523670     0.77500
O829        O  0.36976985  0.44070879  0.97546829    -0.58700
O830        O  0.34320705  0.39153556  0.97838637    -0.57100
O831        O  0.40395257  0.41505110  0.01021817    -0.57100
O832        O  0.36224651  0.39431381  0.02239331    -0.56300
O833        O  0.00324822  0.40561921  0.87295969    -0.57500
C834        C  0.03946021  0.35365393  0.86774622     0.75200
O835        O  0.03064895  0.37479081  0.92865153    -0.58600
C836        C  0.99217503  0.41345497  0.88633779     0.75100
C837        C  0.98013181  0.35059086  0.89626216     0.77500
Cd838      Cd  0.01451435  0.37698979  0.89431426     1.37500
O839        O  0.03877074  0.37257776  0.86582702    -0.57500
O840        O  0.98257351  0.36353069  0.88260765    -0.56300
C841        C  0.04475925  0.38696424  0.92439156     0.77500
O842        O  0.99344960  0.35006720  0.90994629    -0.58700
O843        O  0.02787765  0.34601755  0.88063418    -0.57100
O844        O  0.99252125  0.40493939  0.90330549    -0.57100
O845        O  0.04371422  0.39474801  0.90718939    -0.56300
O846        O  0.14875533  0.26723479  0.86672426    -0.57500
C847        C  0.09428025  0.23236850  0.87163188     0.75200
O848        O  0.09398556  0.27998999  0.82975142    -0.58600
C849        C  0.15666726  0.27824546  0.85330998     0.75100
C850        C  0.12784666  0.22900177  0.81407803     0.77500
Cd851      Cd  0.11902060  0.25748218  0.84566318     1.37500
O852        O  0.11332377  0.23192285  0.87277571    -0.57500
O853        O  0.13559846  0.22847105  0.83134579    -0.56300
C854        C  0.09448083  0.29286021  0.84380272     0.77500
O855        O  0.11562710  0.24324720  0.81078686    -0.58700
O856        O  0.08702527  0.24537067  0.85992196    -0.57100
O857        O  0.14790596  0.27831551  0.83646049    -0.57100
O858        O  0.10699367  0.28981310  0.85779077    -0.56300
O859        O  0.86769586  0.25935700  0.87239660    -0.57500
C860        C  0.92104332  0.29255855  0.87383697     0.75200
O861        O  0.91891430  0.24240883  0.83318326    -0.58600
C862        C  0.85778873  0.24906132  0.85978907     0.75100
C863        C  0.88634101  0.29610988  0.81733100     0.77500
Cd864      Cd  0.89571728  0.26751505  0.84911573     1.37500
O865        O  0.90220549  0.29200105  0.87672837    -0.57500
O866        O  0.87943032  0.29724908  0.83493807    -0.56300
C867        C  0.91934160  0.23110446  0.84852813     0.77500
O868        O  0.89735834  0.28097147  0.81382161    -0.58700
O869        O  0.92783511  0.28123693  0.86027866    -0.57100
O870        O  0.86517950  0.24806921  0.84231950    -0.57100
O871        O  0.90888388  0.23665230  0.86332302    -0.56300
O872        O  0.01091998  0.11644850  0.87052483    -0.57500
C873        C  0.97381425  0.16692685  0.86810609     0.75200
O874        O  0.98945918  0.14963994  0.92853021    -0.58600
C875        C  0.02164393  0.10735160  0.88340520     0.75100
C876        C  0.03494463  0.17427261  0.89628060     0.77500
Cd877      Cd  0.00218448  0.14522837  0.89338856     1.37500
O878        O  0.99209162  0.16531746  0.86316924    -0.57500
O879        O  0.03608488  0.15821118  0.88630273    -0.56300
C880        C  0.97715294  0.13503262  0.92749673     0.77500
O881        O  0.01914308  0.17635229  0.90669982    -0.58700
O882        O  0.96847334  0.15631476  0.88282343    -0.57100
O883        O  0.02248906  0.11551857  0.90052470    -0.57100
O884        O  0.97749920  0.12492198  0.91146171    -0.56300
O885        O  0.87239907  0.42987556  0.72667369    -0.57500
C886        C  0.86819138  0.36249975  0.76318826     0.75200
O887        O  0.84230415  0.42477800  0.76250154    -0.58600
C888        C  0.88654242  0.42246865  0.71653051     0.75100
C889        C  0.82900374  0.38943323  0.71157295     0.77500
Cd890      Cd  0.85973474  0.39908211  0.74109738     1.37500
O891        O  0.88217628  0.37186201  0.75419135    -0.57500
O892        O  0.84608193  0.38109197  0.71213722    -0.56300
C893        C  0.85618660  0.42507073  0.77559296     0.77500
O894        O  0.82555316  0.40208830  0.72533359    -0.58700
O895        O  0.85060258  0.36934858  0.76069924    -0.57100
O896        O  0.88919365  0.40368557  0.71801105    -0.57100
O897        O  0.87078480  0.41330215  0.77273382    -0.56300
O898        O  0.88514350  0.50990406  0.60718734    -0.57500
C899        C  0.88038159  0.54352775  0.65962646     0.75200
O900        O  0.92346933  0.49467652  0.66036913    -0.58600
C901        C  0.89810074  0.49900573  0.59849766     0.75100
C902        C  0.93919237  0.54502398  0.62656633     0.77500
Cd903      Cd  0.90672923  0.51792627  0.63647745     1.37500
O904        O  0.89278849  0.53163453  0.66758619    -0.57500
O905        O  0.92263866  0.54445602  0.61733042    -0.56300
C906        C  0.90883364  0.48240092  0.66073058     0.77500
O907        O  0.94118276  0.53262168  0.64085118    -0.58700
O908        O  0.87933499  0.54317593  0.64068341    -0.57100
O909        O  0.91477650  0.49712988  0.60752156    -0.57100
O910        O  0.89390660  0.48642357  0.64965125    -0.56300
O911        O  0.88495678  0.51739352  0.88741625    -0.57500
C912        C  0.87857990  0.48224578  0.83463488     0.75200
O913        O  0.92003336  0.52806167  0.82957768    -0.58600
C914        C  0.89865831  0.52789891  0.89562517     0.75100
C915        C  0.93803136  0.47910602  0.86625115     0.77500
Cd916      Cd  0.90583065  0.50734894  0.85761019     1.37500
O917        O  0.87769932  0.48222179  0.85362583    -0.57500
O918        O  0.91995053  0.47669746  0.87157156    -0.56300
C919        C  0.90634210  0.54130149  0.83059129     0.77500
O920        O  0.94181324  0.49508903  0.85659239    -0.58700
O921        O  0.89109028  0.49417609  0.82685608    -0.57100
O922        O  0.91527795  0.52827096  0.88642091    -0.57100
O923        O  0.89354695  0.53915629  0.84446843    -0.56300
O924        O  0.88294567  0.62147020  0.77598923    -0.57500
C925        C  0.86526833  0.66481057  0.73084479     0.75200
O926        O  0.83989923  0.60202621  0.72801470    -0.58600
C927        C  0.88125036  0.60250655  0.77560852     0.75100
C928        C  0.82318415  0.63733106  0.77766458     0.77500
Cd929      Cd  0.85573624  0.62741185  0.75057177     1.37500
O930        O  0.87871711  0.65493681  0.74007600    -0.57500
O931        O  0.83994169  0.64632129  0.77798247    -0.56300
C932        C  0.85397861  0.60283057  0.71518325     0.77500
O933        O  0.82103559  0.62387747  0.76437888    -0.58700
O934        O  0.84762490  0.65758704  0.73158806    -0.57100
O935        O  0.86885446  0.59542158  0.76314694    -0.57100
O936        O  0.86757523  0.61577740  0.71820915    -0.56300
O937        O  0.11723613  0.29076150  0.38138168    -0.57500
C938        C  0.15866974  0.24729301  0.35917739     0.75200
O939        O  0.09973240  0.24300627  0.33718330    -0.58600
C940        C  0.10206074  0.29952157  0.37381260     0.75100
C941        C  0.13449820  0.29700739  0.31873886     0.77500
Cd942      Cd  0.12270774  0.26990833  0.35079069     1.37500
O943        O  0.15265268  0.26073697  0.37121625    -0.57500
O944        O  0.14274799  0.29682901  0.33582510    -0.56300
C945        C  0.09267535  0.23875083  0.35435849     0.77500
O946        O  0.12081166  0.28393631  0.31593093    -0.58700
O947        O  0.14818386  0.24498477  0.34348348    -0.57100
O948        O  0.09675508  0.29423205  0.35638392    -0.57100
O949        O  0.09982077  0.24841999  0.36901908    -0.56300
O950        O  0.00387680  0.11939382  0.37719033    -0.57500
C951        C  0.03756322  0.17614236  0.37804156     0.75200
O952        O  0.98654153  0.16928593  0.41560120    -0.58600
C953        C  0.99518409  0.10953439  0.39104827     0.75100
C954        C  0.04240289  0.13622070  0.42927496     0.77500
Cd955      Cd  0.01315430  0.14772846  0.39956914     1.37500
O956        O  0.03442164  0.15891282  0.37044257    -0.57500
O957        O  0.04252838  0.12952341  0.41153246    -0.56300
C958        C  0.97583935  0.16981374  0.39979279     0.77500
O959        O  0.02810907  0.14808608  0.43368342    -0.58700
O960        O  0.02935463  0.17945886  0.39478576    -0.57100
O961        O  0.99612629  0.11708190  0.40842760    -0.57100
O962        O  0.98235658  0.16004071  0.38494421    -0.56300
O963        O  0.86503329  0.26385935  0.37249165    -0.57500
C964        C  0.91508013  0.22475123  0.37561325     0.75200
O965        O  0.89985099  0.24209913  0.31785012    -0.58600
C966        C  0.85907712  0.27767085  0.36083469     0.75100
C967        C  0.92660714  0.28615073  0.35442272     0.77500
Cd968      Cd  0.89559872  0.25550852  0.35231736     1.37500
O969        O  0.90335871  0.23709150  0.38417282    -0.57500
O970        O  0.92093474  0.27588903  0.36929931    -0.56300
C971        C  0.88568226  0.22935193  0.31917394     0.77500
O972        O  0.91799148  0.28246719  0.33784579    -0.58700
O973        O  0.91683312  0.22630039  0.35682977    -0.57100
O974        O  0.86984437  0.28059979  0.34548084    -0.57100
O975        O  0.87527944  0.23002410  0.33505972    -0.56300
O976        O  0.01313671  0.40542394  0.38328450    -0.57500
C977        C  0.98098626  0.34792348  0.38072265     0.75200
O978        O  0.03237061  0.35408128  0.41806984    -0.58600
C979        C  0.02361512  0.41407320  0.39674137     0.75100
C980        C  0.97506972  0.38522426  0.43306367     0.77500
Cd981      Cd  0.00513248  0.37563735  0.40376222     1.37500
O982        O  0.98350988  0.36580344  0.37452951    -0.57500
O983        O  0.97479018  0.39168483  0.41522381    -0.56300
C984        C  0.04231045  0.35379306  0.40178032     0.77500
O985        O  0.99004180  0.37439989  0.43793851    -0.58700
O986        O  0.98987257  0.34333185  0.39686335    -0.57100
O987        O  0.02416881  0.40541206  0.41363087    -0.57100
O988        O  0.03519567  0.36400639  0.38743906    -0.56300
O989        O  0.13760730  0.48709912  0.35303985    -0.57500
C990        C  0.11465113  0.53185233  0.39616203     0.75200
O991        O  0.09248987  0.53327918  0.33757033    -0.58600
C992        C  0.12857110  0.47664187  0.33983592     0.75100
C993        C  0.07518213  0.48093226  0.37426904     0.77500
Cd994      Cd  0.10690484  0.50739068  0.36098942     1.37500
O995        O  0.12684613  0.51803678  0.39117270    -0.57500
O996        O  0.09227439  0.48170402  0.38267528    -0.56300
C997        C  0.10948281  0.53730818  0.32983617     0.77500
O998        O  0.07222397  0.49343805  0.36019079    -0.58700
O999        O  0.09937757  0.53372461  0.38502228    -0.57100
O1000       O  0.11011679  0.48031165  0.33706653    -0.57100
O1001       O  0.12446486  0.52780282  0.33658133    -0.56300
O1002       O  0.13978440  0.37020414  0.25127061    -0.57500
C1003       C  0.13748838  0.42475659  0.21651476     0.75200
O1004       O  0.17417107  0.42270182  0.26966066    -0.58600
C1005       C  0.15239221  0.36222784  0.26315565     0.75100
C1006       C  0.19344905  0.38933579  0.21518174     0.77500
Cd1007     Cd  0.16119426  0.39969165  0.24279491     1.37500
O1008       O  0.13335392  0.40626823  0.21865269    -0.57500
O1009       O  0.17599127  0.38180262  0.21435999    -0.56300
C1010       C  0.15731568  0.42340325  0.27868226     0.77500
O1011       O  0.19661539  0.40180618  0.22927844    -0.58700
O1012       O  0.15186002  0.43162195  0.22690309    -0.57100
O1013       O  0.16925666  0.37107701  0.26448084    -0.57100
O1014       O  0.14322438  0.41303420  0.27117997    -0.56300
O1015       O  0.13991491  0.65062657  0.24004912    -0.57500
C1016       C  0.13807932  0.59689451  0.27464860     0.75200
O1017       O  0.17980088  0.59908063  0.22664892    -0.58600
C1018       C  0.15318063  0.66022195  0.23019776     0.75100
C1019       C  0.19474777  0.63403217  0.27748618     0.77500
Cd1020     Cd  0.16298670  0.62298854  0.25001488     1.37500
O1021       O  0.13358050  0.61530083  0.27276830    -0.57500
O1022       O  0.17790551  0.64281417  0.27700705    -0.56300
C1023       C  0.16553350  0.59940442  0.21399198     0.77500
O1024       O  0.19745917  0.62032375  0.26460226    -0.58700
O1025       O  0.15341556  0.59117463  0.26510577    -0.57100
O1026       O  0.17074071  0.65291436  0.23063201    -0.57100
O1027       O  0.15109449  0.61113280  0.21767218    -0.56300
O1028       O  0.13502764  0.50857203  0.10429839    -0.57500
C1029       C  0.13901949  0.54294043  0.15603869     0.75200
O1030       O  0.07697281  0.53151611  0.13569425    -0.58600
C1031       C  0.12289795  0.49615806  0.09638428     0.75100
C1032       C  0.11152369  0.48341237  0.15939573     0.77500
Cd1033     Cd  0.11234700  0.51750614  0.13285221     1.37500
O1034       O  0.13958979  0.54333953  0.13706983    -0.57500
O1035       O  0.12568671  0.48712919  0.14729309    -0.56300
C1036       C  0.08006654  0.54559739  0.12326948     0.77500
O1037       O  0.09650270  0.49518545  0.15880065    -0.58700
O1038       O  0.12676462  0.53072194  0.16376377    -0.57100
O1039       O  0.10604314  0.49429489  0.10505500    -0.57100
O1040       O  0.09718739  0.54553625  0.11506355    -0.56300
O1041       O  0.28485547  0.63801904  0.39157266    -0.57500
C1042       C  0.24401318  0.65665285  0.34546677     0.75200
O1043       O  0.23913372  0.68232652  0.40929021    -0.58600
C1044       C  0.28636094  0.64263136  0.40996296     0.75100
C1045       C  0.29121911  0.69713639  0.37227511     0.77500
Cd1046     Cd  0.26191973  0.66690685  0.38354747     1.37500
O1047       O  0.25227360  0.64332383  0.35634128    -0.57500
O1048       O  0.29176936  0.67919702  0.36619542    -0.56300
C1049       C  0.22544455  0.66911263  0.40743389     0.77500
O1050       O  0.27652581  0.70172632  0.38352568    -0.58700
O1051       O  0.24470902  0.67441244  0.35221180    -0.57100
O1052       O  0.27610473  0.65749057  0.41565680    -0.57100
O1053       O  0.22814845  0.65619135  0.39384131    -0.56300
O1054       O  0.11385074  0.64132755  0.50202342    -0.57500
C1055       C  0.16582866  0.64535848  0.46482550     0.75200
O1056       O  0.16714231  0.60196192  0.51084870    -0.58600
C1057       C  0.10373082  0.62738288  0.51020118     0.75100
C1058       C  0.13236663  0.58707227  0.46174864     0.77500
Cd1059     Cd  0.14146196  0.61907035  0.48989065     1.37500
O1060       O  0.14678644  0.64636808  0.46417064    -0.57500
O1061       O  0.12487972  0.60447614  0.46057887    -0.56300
C1062       C  0.16706405  0.61515985  0.52456384     0.77500
O1063       O  0.14401432  0.58407056  0.47650679    -0.58700
O1064       O  0.17307986  0.63336447  0.47752994    -0.57100
O1065       O  0.11080403  0.60986852  0.50815456    -0.57100
O1066       O  0.15444183  0.62923878  0.52269983    -0.56300
O1067       O  0.22332271  0.63107073  0.60535661    -0.57500
C1068       C  0.27020474  0.64351962  0.64946672     0.75200
O1069       O  0.27812709  0.66979106  0.59027060    -0.58600
C1070       C  0.22401049  0.63316214  0.58647811     0.75100
C1071       C  0.22806660  0.68985548  0.62190746     0.77500
Cd1072     Cd  0.25173658  0.65497268  0.61205295     1.37500
O1073       O  0.25942710  0.63110169  0.63976542    -0.57500
O1074       O  0.22621379  0.67314717  0.63067714    -0.56300
C1075       C  0.28789247  0.65348686  0.58887138     0.77500
O1076       O  0.24138592  0.69082051  0.60833699    -0.58700
O1077       O  0.27158136  0.66098454  0.64210740    -0.57100
O1078       O  0.23785350  0.64429795  0.57980423    -0.57100
O1079       O  0.28106582  0.63869796  0.59867026    -0.56300
O1080       O  0.40142408  0.63266123  0.49475490    -0.57500
C1081       C  0.34889891  0.63115277  0.53295739     0.75200
O1082       O  0.34777792  0.59831292  0.47550527    -0.58600
C1083       C  0.40817935  0.62090563  0.48136995     0.75100
C1084       C  0.38340676  0.57807635  0.52679204     0.77500
Cd1085     Cd  0.37104694  0.61153537  0.50195195     1.37500
O1086       O  0.36399839  0.64006357  0.52536275    -0.57500
O1087       O  0.39132663  0.59532386  0.52771216    -0.56300
C1088       C  0.34165634  0.61561062  0.47037179     0.77500
O1089       O  0.36983104  0.57571801  0.51355983    -0.58700
O1090       O  0.34436290  0.61414405  0.52589175    -0.57100
O1091       O  0.39752601  0.60558248  0.47769178    -0.57100
O1092       O  0.34932618  0.63046876  0.47939540    -0.56300
O1093       O  0.62933109  0.15328696  0.74439260    -0.57500
C1094       C  0.62805112  0.10244000  0.78186940     0.75200
O1095       O  0.66889052  0.10175668  0.73155345    -0.58600
C1096       C  0.64255616  0.16353962  0.73525842     0.75100
C1097       C  0.68649895  0.13459713  0.78147280     0.77500
Cd1098     Cd  0.65280260  0.12607370  0.75498759     1.37500
O1099       O  0.62797167  0.12142752  0.78289826    -0.57500
O1100       O  0.66975698  0.14350858  0.78247517    -0.56300
C1101       C  0.65405023  0.10115579  0.71955273     0.77500
O1102       O  0.68821529  0.12166139  0.76763198    -0.58700
O1103       O  0.63823729  0.09487248  0.76784756    -0.57100
O1104       O  0.66037880  0.15692421  0.73640892    -0.57100
O1105       O  0.63948672  0.11270095  0.72347307    -0.56300
O1106       O  0.63922104  0.98149738  0.85398569    -0.57500
C1107       C  0.62126117  0.02337236  0.89903717     0.75200
O1108       O  0.59321538  0.02752423  0.83717203    -0.58600
C1109       C  0.63653400  0.98190133  0.83517684     0.75100
C1110       C  0.57936655  0.97590073  0.87047447     0.77500
Cd1111     Cd  0.61075194  0.00483556  0.86118917     1.37500
O1112       O  0.63427099  0.01377292  0.88901236    -0.57500
O1113       O  0.59745408  0.97399170  0.87596467    -0.56300
C1114       C  0.60725036  0.04048341  0.83703652     0.77500
O1115       O  0.57535947  0.99151863  0.86036418    -0.58700
O1116       O  0.60363173  0.02343378  0.89179522    -0.57100
O1117       O  0.62273572  0.99322724  0.82885304    -0.57100
O1118       O  0.62191204  0.03731590  0.84872454    -0.56300
O1119       O  0.63288133  0.87101048  0.75364596    -0.57500
C1120       C  0.62921428  0.92205606  0.71557897     0.75200
O1121       O  0.67169547  0.92533173  0.76211178    -0.58600
C1122       C  0.64634526  0.86218879  0.76385436     0.75100
C1123       C  0.68691383  0.88920891  0.71356370     0.77500
Cd1124     Cd  0.65515138  0.89879946  0.74163427     1.37500
O1125       O  0.64233570  0.92980354  0.72688092    -0.57500
O1126       O  0.66931734  0.88208353  0.71245685    -0.56300
C1127       C  0.65806541  0.92534356  0.77540667     0.77500
O1128       O  0.69038474  0.90059866  0.72841552    -0.58700
O1129       O  0.62687048  0.90320524  0.71692588    -0.57100
O1130       O  0.66379963  0.86981573  0.76278941    -0.57100
O1131       O  0.64379437  0.91295530  0.77317200    -0.56300
O1132       O  0.63324863  0.04490318  0.63978477    -0.57500
C1133       C  0.61928854  0.99927582  0.59720188     0.75200
O1134       O  0.59165820  0.99578599  0.66057994    -0.58600
C1135       C  0.63198557  0.04469848  0.65871783     0.75100
C1136       C  0.57476257  0.04413587  0.62376072     0.77500
Cd1137     Cd  0.60759901  0.01774811  0.63461909     1.37500
O1138       O  0.63219804  0.00742943  0.60865246    -0.57500
O1139       O  0.59275975  0.04684955  0.61831388    -0.56300
C1140       C  0.60529448  0.98248386  0.65984355     0.77500
O1141       O  0.57144471  0.02866293  0.63436037    -0.58700
O1142       O  0.60118023  0.00019905  0.60294907    -0.57100
O1143       O  0.62072094  0.03140853  0.66621962    -0.57100
O1144       O  0.61887102  0.98507168  0.64681769    -0.56300
O1145       O  0.88769857  0.00680099  0.39090055    -0.57500
C1146       C  0.88361094  0.04276354  0.33940468     0.75200
O1147       O  0.94471439  0.02956962  0.35761885    -0.58600
C1148       C  0.90109239  0.99625787  0.39944415     0.75100
C1149       C  0.91041149  0.98157184  0.33641243     0.77500
Cd1150     Cd  0.90950603  0.01637015  0.36204901     1.37500
O1151       O  0.88478088  0.04436471  0.35827930    -0.57500
O1152       O  0.89767322  0.98376059  0.35031338    -0.56300
C1153       C  0.94277594  0.04296801  0.37098080     0.77500
O1154       O  0.92372139  0.99520093  0.33480647    -0.58700
O1155       O  0.89276554  0.02814592  0.33166952    -0.57100
O1156       O  0.91812200  0.99588355  0.39094221    -0.57100
O1157       O  0.92605947  0.04334963  0.37994075    -0.56300
O1158       O  0.88395640  0.15372129  0.25565336    -0.57500
C1159       C  0.88663976  0.10010185  0.21755198     0.75200
O1160       O  0.84655969  0.09946174  0.26656382    -0.58600
C1161       C  0.87004516  0.16163672  0.26606082     0.75100
C1162       C  0.83235864  0.13516187  0.21518761     0.77500
Cd1163     Cd  0.86287827  0.12458336  0.24420986     1.37500
O1164       O  0.89113166  0.11847503  0.22004971    -0.57500
O1165       O  0.85012235  0.14201580  0.21485709    -0.56300
C1166       C  0.86160377  0.09841144  0.27829090     0.77500
O1167       O  0.82806723  0.12393625  0.22996271    -0.58700
O1168       O  0.87256319  0.09318079  0.22820653    -0.57100
O1169       O  0.85330018  0.15258817  0.26562476    -0.57100
O1170       O  0.87646285  0.10965389  0.27433162    -0.56300
O1171       O  0.88471922  0.86983883  0.24227533    -0.57500
C1172       C  0.88780989  0.92264317  0.27818249     0.75200
O1173       O  0.84523985  0.92117090  0.22974120    -0.58600
C1174       C  0.87069921  0.85964319  0.23423801     0.75100
C1175       C  0.82937209  0.88998838  0.28033025     0.77500
Cd1176     Cd  0.86225469  0.89776048  0.25323712     1.37500
O1177       O  0.89027752  0.90377406  0.27780081    -0.57500
O1178       O  0.84656844  0.88211588  0.28233147    -0.56300
C1179       C  0.85957312  0.92125572  0.21721118     0.77500
O1180       O  0.82702545  0.90143544  0.26534381    -0.58700
O1181       O  0.87450977  0.92961335  0.26662693    -0.57100
O1182       O  0.85314410  0.86655548  0.23644177    -0.57100
O1183       O  0.87430270  0.90990373  0.22112364    -0.56300
O1184       O  0.87970531  0.01551021  0.10454487    -0.57500
C1185       C  0.87836809  0.97689053  0.15440002     0.75200
O1186       O  0.93685774  0.99238365  0.14092840    -0.58600
C1187       C  0.89276505  0.02573853  0.09513765     0.75100
C1188       C  0.90547770  0.04005655  0.15936940     0.77500
Cd1189     Cd  0.90282247  0.00593424  0.13274914     1.37500
O1190       O  0.88478040  0.97333246  0.13694000    -0.57500
O1191       O  0.89045137  0.03665811  0.14819431    -0.56300
C1192       C  0.93792872  0.98130361  0.12550408     0.77500
O1193       O  0.92014653  0.02798087  0.15779541    -0.58700
O1194       O  0.88106112  0.99456806  0.16064932    -0.57100
O1195       O  0.91014625  0.02604047  0.10290295    -0.57100
O1196       O  0.92332688  0.98241259  0.11341651    -0.56300
O1197       O  0.76625127  0.88823545  0.35497753    -0.57500
C1198       C  0.72791563  0.89290253  0.40618477     0.75200
O1199       O  0.73951123  0.83219066  0.38549011    -0.58600
C1200       C  0.77447576  0.87376893  0.34569378     0.75100
C1201       C  0.78880222  0.86455998  0.40888969     0.77500
Cd1202     Cd  0.75393431  0.86700121  0.38322895     1.37500
O1203       O  0.72917373  0.89514983  0.38735727    -0.57500
O1204       O  0.78572431  0.87922272  0.39721958    -0.56300
C1205       C  0.72524385  0.83588280  0.37336362     0.77500
O1206       O  0.77609972  0.85030805  0.40821821    -0.58700
O1207       O  0.73922011  0.87983431  0.41395084    -0.57100
O1208       O  0.77220271  0.85661562  0.35348295    -0.57100
O1209       O  0.72473772  0.85347052  0.36634227    -0.56300
O1210       O  0.61820915  0.89623262  0.49154248    -0.57500
C1211       C  0.67017747  0.88892957  0.52709740     0.75200
O1212       O  0.67336519  0.93199899  0.47930552    -0.58600
C1213       C  0.61077667  0.90964312  0.48021095     0.75100
C1214       C  0.64054986  0.94851572  0.53035828     0.77500
Cd1215     Cd  0.64786607  0.91651745  0.50193323     1.37500
O1216       O  0.65114902  0.88959843  0.52818359    -0.57500
O1217       O  0.62932368  0.93327979  0.52876211    -0.56300
C1218       C  0.67311667  0.91749805  0.46692280     0.77500
O1219       O  0.65507995  0.94977160  0.51812431    -0.58700
O1220       O  0.67818640  0.89989282  0.51392940    -0.57100
O1221       O  0.61993408  0.92632859  0.48002302    -0.57100
O1222       O  0.66076411  0.90345203  0.47042822    -0.56300
O1223       O  0.90203703  0.88512184  0.50093920    -0.57500
C1224       C  0.85027203  0.88416568  0.46533012     0.75200
O1225       O  0.84846129  0.92404371  0.51298892    -0.58600
C1226       C  0.91281855  0.89806749  0.50986943     0.75100
C1227       C  0.88469706  0.94067461  0.46429292     0.77500
Cd1228     Cd  0.87469287  0.90855850  0.49162435     1.37500
O1229       O  0.86917373  0.88174542  0.46588121    -0.57500
O1230       O  0.88911855  0.92249029  0.46143475    -0.56300
C1231       C  0.84861718  0.91016819  0.52602084     0.77500
O1232       O  0.87517732  0.94455247  0.48030661    -0.58700
O1233       O  0.84298868  0.89654513  0.47763946    -0.57100
O1234       O  0.90606428  0.91584554  0.50978785    -0.57100
O1235       O  0.86169035  0.89656474  0.52381493    -0.56300
O1236       O  0.75248850  0.88968880  0.63859822    -0.57500
C1237       C  0.79043496  0.89037787  0.58618029     0.75200
O1238       O  0.77663154  0.83172900  0.60908270    -0.58600
C1239       C  0.74231451  0.87614088  0.64738559     0.75100
C1240       C  0.72862482  0.86541782  0.58472282     0.77500
Cd1241     Cd  0.76334766  0.86699548  0.61049916     1.37500
O1242       O  0.78990270  0.89320477  0.60497336    -0.57500
O1243       O  0.73290289  0.88042464  0.59556334    -0.56300
C1244       C  0.79123014  0.83530233  0.62086439     0.77500
O1245       O  0.74034645  0.85041622  0.58587911    -0.58700
O1246       O  0.77767266  0.87826760  0.57905665    -0.57100
O1247       O  0.74285847  0.85889824  0.63943301    -0.57100
O1248       O  0.79211363  0.85292541  0.62776700    -0.56300
C1249       C  0.84025036  0.90286206  0.56155570    -0.20000
C1250       C  0.83374009  0.90901316  0.54248206    -0.06500
C1251       C  0.81288662  0.91107909  0.53876241     0.14300
C1252       C  0.79911760  0.90652034  0.55403952    -0.20000
C1253       C  0.80557730  0.89962622  0.57283804    -0.06500
C1254       C  0.82642589  0.89805347  0.57677253     0.14300
C1255       C  0.83411312  0.88981833  0.59637884    -0.23400
H1256       H  0.85622237  0.90094585  0.56426027     0.15600
H1257       H  0.78311676  0.90726568  0.55094386     0.15600
C1258       C  0.80495745  0.91640267  0.51826041    -0.23300
H1259       H  0.85080270  0.88897051  0.59666295     0.05900
H1260       H  0.82810790  0.87442701  0.59878580     0.09100
H1261       H  0.82928619  0.89966322  0.60888515     0.09100
H1262       H  0.81028911  0.90524792  0.50709894     0.09100
H1263       H  0.81022212  0.93160855  0.51393877     0.09100
H1264       H  0.78824642  0.91643468  0.51783093     0.05800
C1265       C  0.67823193  0.87897407  0.56192772    -0.20000
C1266       C  0.68280488  0.87756264  0.54145219    -0.06500
C1267       C  0.70101407  0.86827426  0.53555098     0.14300
C1268       C  0.71500244  0.86245715  0.55027267    -0.20000
C1269       C  0.71144445  0.86626432  0.57062719    -0.06500
C1270       C  0.69245717  0.87368528  0.57660548     0.14300
C1271       C  0.68729201  0.87637277  0.59843612    -0.23400
H1272       H  0.66414613  0.88576685  0.56647297     0.15600
H1273       H  0.72942828  0.85639699  0.54575819     0.15600
C1274       C  0.70595054  0.86480156  0.51377331    -0.23300
H1275       H  0.67146519  0.88128868  0.60044898     0.05900
H1276       H  0.69713279  0.88792785  0.60534517     0.09100
H1277       H  0.68924567  0.86190447  0.60647097     0.09100
H1278       H  0.70807356  0.87930547  0.50588966     0.09100
H1279       H  0.69358529  0.85621524  0.50652344     0.09100
H1280       H  0.72005962  0.85608125  0.51199656     0.05800
C1281       C  0.82465346  0.87211778  0.41624668    -0.20000
C1282       C  0.80599913  0.86488026  0.42304821    -0.06500
C1283       C  0.80341276  0.86086456  0.44369995     0.14300
C1284       C  0.81889067  0.86587043  0.45718356    -0.20000
C1285       C  0.83705223  0.87427033  0.45048861    -0.06500
C1286       C  0.84033582  0.87659065  0.42970024     0.14300
C1287       C  0.85981175  0.88505736  0.42176590    -0.23400
H1288       H  0.82666779  0.87505089  0.40038944     0.15600
H1289       H  0.81644970  0.86413411  0.47315742     0.15600
C1290       C  0.78389968  0.85265279  0.45177675    -0.23300
H1291       H  0.85968725  0.88621721  0.40515959     0.05900
H1292       H  0.87247037  0.87511432  0.42612654     0.09100
H1293       H  0.86241321  0.90031114  0.42797569     0.09100
H1294       H  0.78092825  0.83762363  0.44520854     0.09100
H1295       H  0.77134509  0.86294900  0.44797175     0.09100
H1296       H  0.78433104  0.85095329  0.46833295     0.05800
C1297       C  0.72097763  0.91293619  0.43649030    -0.20000
C1298       C  0.71359881  0.90403889  0.41889807    -0.06500
C1299       C  0.69260083  0.90241016  0.41599366     0.14300
C1300       C  0.67955372  0.90837065  0.43145578    -0.20000
C1301       C  0.68700635  0.91607503  0.44963291    -0.06500
C1302       C  0.70795863  0.91907726  0.45186894     0.14300
C1303       C  0.71681594  0.92721634  0.47102076    -0.23400
H1304       H  0.73711275  0.91401705  0.43867534     0.15600
H1305       H  0.66348227  0.90607466  0.42975566     0.15600
C1306       C  0.68398882  0.89304009  0.39728575    -0.23300
H1307       H  0.73350191  0.92799336  0.47037200     0.05900
H1308       H  0.71262301  0.91736705  0.48378664     0.09100
H1309       H  0.71112499  0.94262705  0.47373351     0.09100
H1310       H  0.68954277  0.87741147  0.39568261     0.09100
H1311       H  0.68860261  0.90193452  0.38398889     0.09100
H1312       H  0.66728137  0.89256257  0.39765699     0.05800
C1313       C  0.81261746  0.86649082  0.30350820    -0.20000
C1314       C  0.81319249  0.88570045  0.29500317    -0.06500
C1315       C  0.79960048  0.90045874  0.30190203     0.14300
C1316       C  0.78662070  0.89587803  0.31793881    -0.20000
C1317       C  0.78672901  0.87687319  0.32719467    -0.06500
C1318       C  0.79956545  0.86176261  0.31931670     0.14300
C1319       C  0.80030087  0.84072000  0.32766501    -0.23400
H1320       H  0.82284705  0.85512027  0.29795505     0.15600
H1321       H  0.77668869  0.90743310  0.32360899     0.15600
C1322       C  0.79937120  0.92130968  0.29314790    -0.23300
H1323       H  0.81119394  0.83111670  0.31948893     0.05900
H1324       H  0.78528392  0.83351345  0.32626362     0.09100
H1325       H  0.80510281  0.84108793  0.34360087     0.09100
H1326       H  0.79522352  0.92060418  0.27704359     0.09100
H1327       H  0.81445262  0.92833573  0.29478094     0.09100
H1328       H  0.78826080  0.93110695  0.30078123     0.05800
C1329       C  0.87142175  0.92791368  0.18275227    -0.20000
C1330       C  0.86001875  0.93434478  0.19922420    -0.06500
C1331       C  0.85198428  0.95400009  0.19915379     0.14300
C1332       C  0.85692123  0.96711775  0.18336633    -0.20000
C1333       C  0.86968686  0.96115396  0.16766405    -0.06500
C1334       C  0.87648856  0.94100861  0.16706932     0.14300
C1335       C  0.89036967  0.93348264  0.15087287    -0.23400
H1336       H  0.87737808  0.91277154  0.18269559     0.15600
H1337       H  0.85162957  0.98248835  0.18383607     0.15600
C1338       C  0.83937600  0.96173759  0.21624129    -0.23300
H1339       H  0.89448590  0.91748373  0.15312512     0.05900
H1340       H  0.90453081  0.94237198  0.15087984     0.09100
H1341       H  0.88287317  0.93469878  0.13605358     0.09100
H1342       H  0.84807320  0.96101644  0.23044815     0.09100
H1343       H  0.82546832  0.95258036  0.21761851     0.09100
H1344       H  0.83478906  0.97758553  0.21388534     0.05800
C1345       C  0.90662983  0.07016523  0.20785005    -0.20000
C1346       C  0.89593018  0.08734622  0.20202321    -0.06500
C1347       C  0.89077013  0.08996290  0.18166999     0.14300
C1348       C  0.89533561  0.07478109  0.16782150    -0.20000
C1349       C  0.90510437  0.05706451  0.17375143    -0.06500
C1350       C  0.91156512  0.05508839  0.19389326     0.14300
C1351       C  0.92246938  0.03661592  0.20103815    -0.23400
H1352       H  0.91033102  0.06813453  0.22354877     0.15600
H1353       H  0.89045275  0.07636909  0.15238795     0.15600
C1354       C  0.87925211  0.10818018  0.17478060    -0.23300
H1355       H  0.92592800  0.03738298  0.21731410     0.05900
H1356       H  0.93693368  0.03510596  0.19287993     0.09100
H1357       H  0.91305247  0.02308502  0.19837768     0.09100
H1358       H  0.88811034  0.12194646  0.17804821     0.09100
H1359       H  0.86458872  0.10900219  0.18270070     0.09100
H1360       H  0.87619194  0.10775404  0.15841483     0.05800
C1361       C  0.91096581  0.96844471  0.42194209    -0.20000
C1362       C  0.89725108  0.98390482  0.41770383    -0.06500
C1363       C  0.88029217  0.98629473  0.43037944     0.14300
C1364       C  0.87704742  0.97250206  0.44609068    -0.20000
C1365       C  0.89009337  0.95624502  0.44929197    -0.06500
C1366       C  0.90760488  0.95457251  0.43735202     0.14300
C1367       C  0.92304476  0.93832409  0.44074662    -0.23400
H1368       H  0.92418386  0.96665818  0.41262434     0.15600
H1369       H  0.86379639  0.97397289  0.45543921     0.15600
C1370       C  0.86557544  0.00323987  0.42759829    -0.23300
H1371       H  0.93653073  0.94042859  0.43115297     0.05900
H1372       H  0.91660068  0.92341211  0.43700118     0.09100
H1373       H  0.92811586  0.93852818  0.45661076     0.09100
H1374       H  0.85770825  0.00167908  0.41300681     0.09100
H1375       H  0.87365487  0.01783841  0.42820607     0.09100
H1376       H  0.85390526  0.00332357  0.43950314     0.05800
C1377       C  0.89736652  0.93108299  0.31293556    -0.20000
C1378       C  0.89838026  0.93593043  0.29252198    -0.06500
C1379       C  0.90637512  0.95474050  0.28671035     0.14300
C1380       C  0.91174581  0.96879133  0.30152190    -0.20000
C1381       C  0.90873689  0.96471674  0.32195508    -0.06500
C1382       C  0.90209292  0.94534116  0.32775253     0.14300
C1383       C  0.89963891  0.93963537  0.34948086    -0.23400
H1384       H  0.89136590  0.91659333  0.31733149     0.15600
H1385       H  0.91708718  0.98351574  0.29704817     0.15600
C1386       C  0.90913732  0.96008917  0.26492922    -0.23300
H1387       H  0.89571777  0.92350820  0.35122104     0.05900
H1388       H  0.88734819  0.94846471  0.35640634     0.09100
H1389       H  0.91392587  0.94240698  0.35767744     0.09100
H1390       H  0.89439034  0.96057953  0.25715131     0.09100
H1391       H  0.91890483  0.94875560  0.25760813     0.09100
H1392       H  0.91634933  0.97503955  0.26311692     0.05800
C1393       C  0.86304264  0.05084911  0.30948341    -0.20000
C1394       C  0.87349850  0.05770017  0.32648629    -0.06500
C1395       C  0.87733382  0.07846944  0.32867668     0.14300
C1396       C  0.87182366  0.09162169  0.31320195    -0.20000
C1397       C  0.86255414  0.08460553  0.29562738    -0.06500
C1398       C  0.85736149  0.06407516  0.29406847     0.14300
C1399       C  0.84713203  0.05580054  0.27566361    -0.23400
H1400       H  0.86020844  0.03490489  0.30780816     0.15600
H1401       H  0.87570423  0.10740131  0.31437523     0.15600
C1402       C  0.88865108  0.08668595  0.34649017    -0.23300
H1403       H  0.84472175  0.03932815  0.27676865     0.05900
H1404       H  0.85650366  0.05876197  0.26221638     0.09100
H1405       H  0.83219669  0.06298655  0.27376993     0.09100
H1406       H  0.90376601  0.07966323  0.34743349     0.09100
H1407       H  0.88013097  0.08352448  0.36043353     0.09100
H1408       H  0.89079770  0.10319724  0.34543868     0.05800
C1409       C  0.61760625  0.97276672  0.54642338    -0.20000
C1410       C  0.63659890  0.96372201  0.54598219    -0.06500
C1411       C  0.65034839  0.96748919  0.56169499     0.14300
C1412       C  0.64456925  0.97993660  0.57770441    -0.20000
C1413       C  0.62519790  0.98836667  0.57864544    -0.06500
C1414       C  0.61170848  0.98510038  0.56244641     0.14300
C1415       C  0.59111839  0.99454468  0.56172770    -0.23400
H1416       H  0.60712635  0.96975009  0.53431681     0.15600
H1417       H  0.65494914  0.98230447  0.59002684     0.15600
C1418       C  0.67063450  0.95744775  0.56221719    -0.23300
H1419       H  0.58336135  0.99148453  0.54728200     0.05900
H1420       H  0.59247143  0.01108040  0.56338580     0.09100
H1421       H  0.58149119  0.98835547  0.57381385     0.09100
H1422       H  0.67953878  0.96198340  0.54890776     0.09100
H1423       H  0.66868557  0.94088070  0.56220338     0.09100
H1424       H  0.67931743  0.96163518  0.57583967     0.05800
C1425       C  0.71711350  0.89953767  0.69378631    -0.20000
C1426       C  0.70222680  0.88497740  0.69783404    -0.06500
C1427       C  0.70161370  0.86728109  0.68606826     0.14300
C1428       C  0.71528433  0.86506383  0.67038251    -0.20000
C1429       C  0.72955718  0.87974706  0.66545445    -0.06500
C1430       C  0.73064707  0.89721252  0.67760679     0.14300
C1431       C  0.74589639  0.91356412  0.67383366    -0.23400
H1432       H  0.71769938  0.91275106  0.70262277     0.15600
H1433       H  0.71431764  0.85101069  0.66097758     0.15600
C1434       C  0.68676584  0.85060046  0.69006881    -0.23300
H1435       H  0.74501794  0.92565008  0.68522783     0.05900
H1436       H  0.74316056  0.92051224  0.65895019     0.09100
H1437       H  0.76132728  0.90719196  0.67436772     0.09100
H1438       H  0.67125269  0.85572560  0.68683468     0.09100
H1439       H  0.68798617  0.84562644  0.70586983     0.09100
H1440       H  0.68960009  0.83728282  0.68035930     0.05800
C1441       C  0.60870643  0.95212094  0.70793608    -0.20000
C1442       C  0.61828119  0.93471451  0.70098647    -0.06500
C1443       C  0.62058003  0.93181037  0.68015649     0.14300
C1444       C  0.61473735  0.94713302  0.66688783    -0.20000
C1445       C  0.60640190  0.96520043  0.67390054    -0.06500
C1446       C  0.60245981  0.96729339  0.69464937     0.14300
C1447       C  0.59297670  0.98599606  0.70307643    -0.23400
H1448       H  0.60700745  0.95427547  0.72394484     0.15600
H1449       H  0.61761585  0.94540678  0.65099701     0.15600
C1450       C  0.63051220  0.91321989  0.67198135    -0.23300
H1451       H  0.59139974  0.98519342  0.71962869     0.05900
H1452       H  0.57770415  0.98795722  0.69661186     0.09100
H1453       H  0.60240444  0.99929250  0.69947719     0.09100
H1454       H  0.62167961  0.89975816  0.67636232     0.09100
H1455       H  0.64603499  0.91191516  0.67802067     0.09100
H1456       H  0.63145857  0.91353779  0.65536317     0.05800
C1457       C  0.64931271  0.94828914  0.82648683    -0.20000
C1458       C  0.64744577  0.96858856  0.82124906    -0.06500
C1459       C  0.65294121  0.97486029  0.80172461     0.14300
C1460       C  0.65838957  0.96037671  0.78744436    -0.20000
C1461       C  0.65779952  0.93986258  0.79207922    -0.06500
C1462       C  0.65403363  0.93376525  0.81201091     0.14300
C1463       C  0.65452862  0.91193843  0.81795127    -0.23400
H1464       H  0.64539104  0.94354831  0.84153133     0.15600
H1465       H  0.66157808  0.96498364  0.77217880     0.15600
C1466       C  0.65275633  0.99670170  0.79575303    -0.23300
H1467       H  0.65217344  0.90995886  0.83431228     0.05900
H1468       H  0.66937952  0.90542171  0.81405844     0.09100
H1469       H  0.64247692  0.90350073  0.81007735     0.09100
H1470       H  0.66229328  0.00550396  0.80624555     0.09100
H1471       H  0.63719394  0.00265599  0.79594356     0.09100
H1472       H  0.65873446  0.99891930  0.78036941     0.05800
C1473       C  0.64412471  0.09393579  0.68436604    -0.20000
C1474       C  0.65289332  0.08713990  0.70229745    -0.06500
C1475       C  0.65749550  0.06651412  0.70435832     0.14300
C1476       C  0.65178836  0.05305068  0.68912880    -0.20000
C1477       C  0.64197243  0.05972008  0.67173280    -0.06500
C1478       C  0.63881167  0.08051342  0.66896034     0.14300
C1479       C  0.62856986  0.08845143  0.65041833    -0.23400
H1480       H  0.64064051  0.10975397  0.68276308     0.15600
H1481       H  0.65416406  0.03708572  0.69120263     0.15600
C1482       C  0.66707047  0.05839173  0.72315830    -0.23300
H1483       H  0.62682525  0.10502308  0.65092995     0.05900
H1484       H  0.61335281  0.08168589  0.64891994     0.09100
H1485       H  0.63766013  0.08469289  0.63699252     0.09100
H1486       H  0.65745356  0.06181486  0.73631405     0.09100
H1487       H  0.68214870  0.06528160  0.72527141     0.09100
H1488       H  0.66907386  0.04185869  0.72244146     0.05800
C1489       C  0.61598841  0.07604572  0.83057968    -0.20000
C1490       C  0.60749275  0.05808367  0.82345170    -0.06500
C1491       C  0.60259932  0.05641501  0.80287776     0.14300
C1492       C  0.60811792  0.07196934  0.78972944    -0.20000
C1493       C  0.61796657  0.08929964  0.79668226    -0.06500
C1494       C  0.62112471  0.09175679  0.81749276     0.14300
C1495       C  0.63125422  0.11022373  0.82583578    -0.23400
H1496       H  0.61955922  0.07738125  0.84638525     0.15600
H1497       H  0.60563287  0.07017572  0.77376386     0.15600
C1498       C  0.59287296  0.03777491  0.79445534    -0.23300
H1499       H  0.63293450  0.10941507  0.84238442     0.05900
H1500       H  0.62211116  0.12368943  0.82227937     0.09100
H1501       H  0.64649644  0.11191745  0.81924306     0.09100
H1502       H  0.57792943  0.03548228  0.80152148     0.09100
H1503       H  0.60254153  0.02452220  0.79737636     0.09100
H1504       H  0.59053797  0.03891069  0.77800520     0.05800
C1505       C  0.31857350  0.63455001  0.58035940    -0.20000
C1506       C  0.30604438  0.65099906  0.57616888    -0.06500
C1507       C  0.30996608  0.66282303  0.55891597     0.14300
C1508       C  0.32554933  0.65711632  0.54581959    -0.20000
C1509       C  0.33673630  0.63963599  0.54928487    -0.06500
C1510       C  0.33359487  0.62853542  0.56700887     0.14300
C1511       C  0.34575694  0.60998993  0.57166913    -0.23400
H1512       H  0.31594555  0.62565734  0.59370406     0.15600
H1513       H  0.32799027  0.66543672  0.53207611     0.15600
C1514       C  0.29705002  0.68055441  0.55341739    -0.23300
H1515       H  0.34185889  0.60360897  0.58654831     0.05900
H1516       H  0.36203063  0.61378429  0.57175656     0.09100
H1517       H  0.34286981  0.59817108  0.56029942     0.09100
H1518       H  0.29790339  0.69209085  0.56538956     0.09100
H1519       H  0.28120064  0.67563136  0.55136606     0.09100
H1520       H  0.30204279  0.68767166  0.53921067     0.05800
C1521       C  0.17467683  0.62089205  0.56053757    -0.20000
C1522       C  0.18151891  0.61511030  0.54149188    -0.06500
C1523       C  0.20237649  0.61236702  0.53838655     0.14300
C1524       C  0.21591388  0.61714883  0.55388254    -0.20000
C1525       C  0.20912810  0.62410078  0.57256543    -0.06500
C1526       C  0.18820284  0.62514354  0.57620918     0.14300
C1527       C  0.18005810  0.63197987  0.59612840    -0.23400
H1528       H  0.15867376  0.62284873  0.56292276     0.15600
H1529       H  0.23195956  0.61623291  0.55114213     0.15600
C1530       C  0.21054300  0.60568841  0.51840833    -0.23300
H1531       H  0.16335208  0.63234826  0.59619954     0.05900
H1532       H  0.18561029  0.64733375  0.59957196     0.09100
H1533       H  0.18497241  0.62147157  0.60807932     0.09100
H1534       H  0.20600229  0.61644760  0.50653136     0.09100
H1535       H  0.20465490  0.59051490  0.51473686     0.09100
H1536       H  0.22723144  0.60484576  0.51849349     0.05800
C1537       C  0.21171942  0.67072301  0.44199123    -0.20000
C1538       C  0.20812548  0.66750401  0.42148696    -0.06500
C1539       C  0.18901034  0.66019232  0.41540879     0.14300
C1540       C  0.17465701  0.65495080  0.43001841    -0.20000
C1541       C  0.17914505  0.65612034  0.45053873    -0.06500
C1542       C  0.19764270  0.66479358  0.45659706     0.14300
C1543       C  0.20274654  0.66758942  0.47844690    -0.23400
H1544       H  0.22621484  0.67652666  0.44671214     0.15600
H1545       H  0.16041657  0.64846939  0.42537273     0.15600
C1546       C  0.18369117  0.65758250  0.39358958    -0.23300
H1547       H  0.21726223  0.67564464  0.48044579     0.05900
H1548       H  0.20414791  0.65282904  0.48600313     0.09100
H1549       H  0.19080030  0.67653058  0.48585925     0.09100
H1550       H  0.19307432  0.64567553  0.38674616     0.09100
H1551       H  0.18605570  0.67195175  0.38548800     0.09100
H1552       H  0.16770503  0.65308903  0.39159534     0.05800
C1553       C  0.29378947  0.63220409  0.44475137    -0.20000
C1554       C  0.29953055  0.63197908  0.42448058    -0.06500
C1555       C  0.31854014  0.62393448  0.41925330     0.14300
C1556       C  0.33162448  0.61734489  0.43453406    -0.20000
C1557       C  0.32620575  0.61877337  0.45478914    -0.06500
C1558       C  0.30688823  0.62578688  0.45992842     0.14300
C1559       C  0.30019483  0.62679823  0.48148479    -0.23400
H1560       H  0.27916782  0.63812048  0.44883684     0.15600
H1561       H  0.34655710  0.61205949  0.43073856     0.15600
C1562       C  0.32564705  0.62338321  0.39783604    -0.23300
H1563       H  0.28450487  0.63236034  0.48284571     0.05900
H1564       H  0.31013359  0.63710158  0.49006014     0.09100
H1565       H  0.30087341  0.61159002  0.48826249     0.09100
H1566       H  0.32585313  0.63881139  0.39152839     0.09100
H1567       H  0.31546715  0.61373416  0.38879483     0.09100
H1568       H  0.34108833  0.61715866  0.39659970     0.05800
C1569       C  0.23251757  0.63127678  0.32033141    -0.20000
C1570       C  0.23348939  0.65154923  0.32629487    -0.06500
C1571       C  0.22342999  0.66613780  0.31438912     0.14300
C1572       C  0.21181092  0.65988869  0.29793662    -0.20000
C1573       C  0.20998100  0.63958875  0.29276349    -0.06500
C1574       C  0.22090881  0.62512085  0.30376433     0.14300
C1575       C  0.21948885  0.60307862  0.29885736    -0.23400
H1576       H  0.24031788  0.62001635  0.32908239     0.15600
H1577       H  0.20357138  0.67095418  0.28929231     0.15600
C1578       C  0.22428976  0.68831272  0.31892689    -0.23300
H1579       H  0.22844865  0.59380085  0.30941778     0.05900
H1580       H  0.22532410  0.60034749  0.28352291     0.09100
H1581       H  0.20357368  0.59803917  0.29976222     0.09100
H1582       H  0.24016821  0.69353755  0.31889849     0.09100
H1583       H  0.21722787  0.69137868  0.33367227     0.09100
H1584       H  0.21603240  0.69732178  0.30758595     0.05800
C1585       C  0.16646674  0.56491321  0.20079644    -0.20000
C1586       C  0.16442228  0.58546330  0.19682720    -0.06500
C1587       C  0.15768743  0.59173906  0.17771814     0.14300
C1588       C  0.15122640  0.57726258  0.16377472    -0.20000
C1589       C  0.15087316  0.55679523  0.16876799    -0.06500
C1590       C  0.15948417  0.55046670  0.18712339     0.14300
C1591       C  0.16098326  0.52854956  0.19258265    -0.23400
H1592       H  0.17191912  0.56015439  0.21535967     0.15600
H1593       H  0.14502148  0.58206991  0.14953032     0.15600
C1594       C  0.15705340  0.61365618  0.17211091    -0.23300
H1595       H  0.16935109  0.52633659  0.20683329     0.05900
H1596       H  0.16907667  0.52031605  0.18059260     0.09100
H1597       H  0.14577719  0.52197219  0.19460332     0.09100
H1598       H  0.17226428  0.62035887  0.17392003     0.09100
H1599       H  0.14622901  0.62182907  0.18173205     0.09100
H1600       H  0.15229553  0.61579750  0.15628956     0.05800
C1601       C  0.11507747  0.45353354  0.20789152    -0.20000
C1602       C  0.12727091  0.43754530  0.20157300    -0.06500
C1603       C  0.13169711  0.43537058  0.18104422     0.14300
C1604       C  0.12471364  0.44975042  0.16738877    -0.20000
C1605       C  0.11353469  0.46646029  0.17371162    -0.06500
C1606       C  0.10787010  0.46791480  0.19412362     0.14300
C1607       C  0.09522209  0.48507084  0.20163603    -0.23400
H1608       H  0.11176808  0.45512980  0.22371553     0.15600
H1609       H  0.12895486  0.44850493  0.15175301     0.15600
C1610       C  0.14496830  0.41859432  0.17369876    -0.23300
H1611       H  0.09248966  0.48398268  0.21802021     0.05900
H1612       H  0.08037865  0.48489577  0.19396846     0.09100
H1613       H  0.10293248  0.49956456  0.19865275     0.09100
H1614       H  0.13802170  0.40389497  0.17741681     0.09100
H1615       H  0.15999064  0.41963689  0.18095710     0.09100
H1616       H  0.14717571  0.41922646  0.15721454     0.05800
C1617       C  0.11031149  0.57451247  0.43449788    -0.20000
C1618       C  0.12751900  0.57153171  0.44633955    -0.06500
C1619       C  0.13981049  0.55463559  0.44237042     0.14300
C1620       C  0.13505865  0.54190420  0.42613924    -0.20000
C1621       C  0.11816670  0.54529718  0.41384211    -0.06500
C1622       C  0.10532740  0.56169158  0.41854518     0.14300
C1623       C  0.08634445  0.56616657  0.40693565    -0.23400
H1624       H  0.10061509  0.58719175  0.43767419     0.15600
H1625       H  0.14478928  0.52928898  0.42293418     0.15600
C1626       C  0.15821084  0.55009090  0.45476662    -0.23300
H1627       H  0.07821099  0.57937023  0.41303855     0.05900
H1628       H  0.07591313  0.55314999  0.40777838     0.09100
H1629       H  0.09005179  0.56959134  0.39108523     0.09100
H1630       H  0.15377200  0.54727886  0.47055592     0.09100
H1631       H  0.16890957  0.56289346  0.45407028     0.09100
H1632       H  0.16618238  0.53651471  0.44931247     0.05800
C1633       C  0.10885763  0.57271367  0.31783597    -0.20000
C1634       C  0.11235414  0.55234074  0.31379636    -0.06500
C1635       C  0.12148704  0.54684140  0.29554652     0.14300
C1636       C  0.12858296  0.56184032  0.28261986    -0.20000
C1637       C  0.12672790  0.58233602  0.28732590    -0.06500
C1638       C  0.11587246  0.58784657  0.30476294     0.14300
C1639       C  0.11250163  0.60950539  0.31023670    -0.23400
H1640       H  0.10168487  0.57682970  0.33182689     0.15600
H1641       H  0.13624996  0.55745277  0.26897182     0.15600
C1642       C  0.12381469  0.52509085  0.28969670    -0.23300
H1643       H  0.10398708  0.61100069  0.32447138     0.05900
H1644       H  0.10366629  0.61701074  0.29826569     0.09100
H1645       H  0.12717757  0.61726415  0.31215730     0.09100
H1646       H  0.10880953  0.51771419  0.28946833     0.09100
H1647       H  0.13369809  0.51718572  0.30051719     0.09100
H1648       H  0.13057233  0.52347235  0.27456709     0.05800
C1649       C  0.15530663  0.46716487  0.31564351    -0.20000
C1650       C  0.13878921  0.46137514  0.32740539    -0.06500
C1651       C  0.13050827  0.44199141  0.32493356     0.14300
C1652       C  0.13792485  0.42948070  0.30975015    -0.20000
C1653       C  0.15338585  0.43580821  0.29681428    -0.06500
C1654       C  0.16271108  0.45463378  0.30031242     0.14300
C1655       C  0.17959879  0.46213762  0.28727140    -0.23400
H1656       H  0.16160227  0.48206348  0.31760756     0.15600
H1657       H  0.13104453  0.41487618  0.30749184     0.15600
C1658       C  0.11379378  0.43445272  0.33826185    -0.23300
H1659       H  0.18472948  0.47734448  0.29184317     0.05900
H1660       H  0.17451138  0.46298954  0.27143632     0.09100
H1661       H  0.19265670  0.45184120  0.28846333     0.09100
H1662       H  0.10003532  0.44360684  0.33615111     0.09100
H1663       H  0.11862230  0.43527536  0.35418252     0.09100
H1664       H  0.10981397  0.41860024  0.33489246     0.05800
C1665       C  0.06195268  0.45704112  0.39966458    -0.20000
C1666       C  0.06000458  0.46564943  0.38053443    -0.06500
C1667       C  0.04496973  0.45811707  0.36746077     0.14300
C1668       C  0.03273399  0.44204800  0.37370746    -0.20000
C1669       C  0.03527022  0.43281188  0.39249053    -0.06500
C1670       C  0.05000027  0.44073211  0.40580884     0.14300
C1671       C  0.05394297  0.43183758  0.42624383    -0.23400
H1672       H  0.07340603  0.46276861  0.40976352     0.15600
H1673       H  0.02152770  0.43617669  0.36343030     0.15600
C1674       C  0.04234419  0.46608105  0.34648318    -0.23300
H1675       H  0.06600933  0.44002678  0.43441133     0.05900
H1676       H  0.05889940  0.41600456  0.42471676     0.09100
H1677       H  0.04011884  0.43264626  0.43552034     0.09100
H1678       H  0.05658194  0.46429930  0.33797515     0.09100
H1679       H  0.03803335  0.48215318  0.34700240     0.09100
H1680       H  0.03035611  0.45792265  0.33817688     0.05800
C1681       C  0.86218402  0.20576563  0.30224350    -0.20000
C1682       C  0.88167816  0.21376974  0.30361455    -0.06500
C1683       C  0.89709138  0.20525193  0.29170716     0.14300
C1684       C  0.89269353  0.18865657  0.27933209    -0.20000
C1685       C  0.87328639  0.18018046  0.27842157    -0.06500
C1686       C  0.85770808  0.18926119  0.28986891     0.14300
C1687       C  0.83627458  0.18173943  0.28951956    -0.23400
H1688       H  0.85033397  0.21229643  0.31127755     0.15600
H1689       H  0.90469271  0.18197670  0.27064658     0.15600
C1690       C  0.91843057  0.21292192  0.29257111    -0.23300
H1691       H  0.82620509  0.19107888  0.29894762     0.05900
H1692       H  0.83556475  0.16619341  0.29547329     0.09100
H1693       H  0.83031157  0.18222436  0.27397369     0.09100
H1694       H  0.92424391  0.21188065  0.30815117     0.09100
H1695       H  0.91897226  0.22875719  0.28741288     0.09100
H1696       H  0.92861733  0.20409575  0.28279114     0.05800
C1697       C  0.93771011  0.32184617  0.35309930    -0.20000
C1698       C  0.94239896  0.30164614  0.35689702    -0.06500
C1699       C  0.96100667  0.29692083  0.36598179     0.14300
C1700       C  0.97355325  0.31244009  0.37270130    -0.20000
C1701       C  0.96834728  0.33271696  0.37024225    -0.06500
C1702       C  0.95049599  0.33749643  0.35962926     0.14300
C1703       C  0.94424380  0.35893623  0.35617137    -0.23400
H1704       H  0.92343835  0.32542768  0.34607624     0.15600
H1705       H  0.98745110  0.30858523  0.38031420     0.15600
C1706       C  0.96816086  0.27564218  0.36882383    -0.23300
H1707       H  0.92963319  0.35988474  0.34812688     0.05900
H1708       H  0.95572416  0.36673139  0.34692163     0.09100
H1709       H  0.94259830  0.36679011  0.37075424     0.09100
H1710       H  0.98293639  0.27375294  0.36130358     0.09100
H1711       H  0.95776179  0.26434117  0.36233768     0.09100
H1712       H  0.97004516  0.27249971  0.38505318     0.05800
C1713       C  0.98520771  0.08168345  0.36796299    -0.20000
C1714       C  0.98377047  0.09064887  0.38701894    -0.06500
C1715       C  0.97031211  0.08218251  0.40124771     0.14300
C1716       C  0.95807719  0.06598482  0.39562679    -0.20000
C1717       C  0.95865656  0.05780751  0.37626935    -0.06500
C1718       C  0.97285571  0.06538397  0.36240019     0.14300
C1719       C  0.97445684  0.05708075  0.34147220    -0.23400
H1720       H  0.99562941  0.08784476  0.35709522     0.15600
H1721       H  0.94744468  0.05997785  0.40638367     0.15600
C1722       C  0.96794490  0.09034962  0.42222471    -0.23300
H1723       H  0.98605694  0.06509332  0.33253710     0.05900
H1724       H  0.95981973  0.05868152  0.33359728     0.09100
H1725       H  0.97874670  0.04099820  0.34209849     0.09100
H1726       H  0.96269469  0.10615214  0.42164303     0.09100
H1727       H  0.98248287  0.08937006  0.43038138     0.09100
H1728       H  0.95668230  0.08175263  0.43104343     0.05800
C1729       C  0.92629636  0.18972339  0.37992552    -0.20000
C1730       C  0.92711719  0.20966835  0.38652553    -0.06500
C1731       C  0.94209982  0.21543722  0.40042266     0.14300
C1732       C  0.95703119  0.20152684  0.40600959    -0.20000
C1733       C  0.95729966  0.18206726  0.39786530    -0.06500
C1734       C  0.94104609  0.17577186  0.38558393     0.14300
C1735       C  0.93922184  0.15443814  0.37817952    -0.23400
H1736       H  0.91461215  0.18531689  0.36944436     0.15600
H1737       H  0.96931771  0.20633054  0.41557610     0.15600
C1738       C  0.94318534  0.23664242  0.40817680    -0.23300
H1739       H  0.92464616  0.15180857  0.37043684     0.05900
H1740       H  0.94009593  0.14390321  0.39105529     0.09100
H1741       H  0.95132162  0.15099357  0.36730259     0.09100
H1742       H  0.92922255  0.24020532  0.41655236     0.09100
H1743       H  0.94476300  0.24726114  0.39546696     0.09100
H1744       H  0.95618894  0.23886888  0.41840999     0.05800
C1745       C  0.12550512  0.31809937  0.28911160    -0.20000
C1746       C  0.14004075  0.31226377  0.30326600    -0.06500
C1747       C  0.15910240  0.32187003  0.30292715     0.14300
C1748       C  0.16270737  0.33742260  0.28914185    -0.20000
C1749       C  0.14783667  0.34406050  0.27565416    -0.06500
C1750       C  0.12902738  0.33388561  0.27545458     0.14300
C1751       C  0.11237080  0.33962157  0.26123357    -0.23400
H1752       H  0.11094640  0.31073637  0.28921241     0.15600
H1753       H  0.17724499  0.34481760  0.28932803     0.15600
C1754       C  0.17593489  0.31580398  0.31685602    -0.23300
H1755       H  0.09899266  0.32974382  0.26291736     0.05900
H1756       H  0.11768266  0.33826224  0.24552457     0.09100
H1757       H  0.10744412  0.35524028  0.26425850     0.09100
H1758       H  0.17888683  0.29947165  0.31535921     0.09100
H1759       H  0.17194610  0.31943760  0.33257793     0.09100
H1760       H  0.19015848  0.32388273  0.31341799     0.05800
C1761       C  0.04723654  0.21180420  0.37549408    -0.20000
C1762       C  0.05018851  0.19206569  0.36868123    -0.06500
C1763       C  0.06597010  0.18826161  0.35493339     0.14300
C1764       C  0.07906449  0.20406795  0.34947679    -0.20000
C1765       C  0.07688809  0.22338176  0.35766272    -0.06500
C1766       C  0.06039548  0.22738555  0.37037810     0.14300
C1767       C  0.05648877  0.24811066  0.37866284    -0.23400
H1768       H  0.03486348  0.21500886  0.38554872     0.15600
H1769       H  0.09165371  0.20110047  0.33961514     0.15600
C1770       C  0.06967234  0.16756576  0.34666558    -0.23300
H1771       H  0.04212941  0.24876511  0.38714085     0.05900
H1772       H  0.05553628  0.25910875  0.36619759     0.09100
H1773       H  0.06868675  0.25258257  0.38912014     0.09100
H1774       H  0.05631697  0.16246652  0.33802694     0.09100
H1775       H  0.07268679  0.15691931  0.35911261     0.09100
H1776       H  0.08283883  0.16730148  0.33643811     0.05800
C1777       C  0.07979983  0.31050131  0.40157406    -0.20000
C1778       C  0.09073769  0.31531833  0.38426952    -0.06500
C1779       C  0.08819385  0.33426437  0.37523393     0.14300
C1780       C  0.07343766  0.34727379  0.38260416    -0.20000
C1781       C  0.06083464  0.34169185  0.39860064    -0.06500
C1782       C  0.06476755  0.32347364  0.40887723     0.14300
C1783       C  0.05245005  0.31697541  0.42666302    -0.23400
H1784       H  0.08198488  0.29594252  0.40849104     0.15600
H1785       H  0.07098874  0.36146294  0.37504940     0.15600
C1786       C  0.10074157  0.34058125  0.35746324    -0.23300
H1787       H  0.05756441  0.30230331  0.43269050     0.05900
H1788       H  0.03641275  0.31535657  0.42226024     0.09100
H1789       H  0.05387581  0.32825608  0.43883612     0.09100
H1790       H  0.09771825  0.33063344  0.34446051     0.09100
H1791       H  0.11695910  0.33975474  0.36141460     0.09100
H1792       H  0.09738742  0.35621178  0.35276496     0.05800
C1793       C  0.89702785  0.57656437  0.82355839    -0.20000
C1794       C  0.90446828  0.55826082  0.81623318    -0.06500
C1795       C  0.90690947  0.55581844  0.79529119     0.14300
C1796       C  0.90045927  0.57118090  0.78227458    -0.20000
C1797       C  0.89195550  0.58900700  0.78966593    -0.06500
C1798       C  0.89076199  0.59193583  0.81058673     0.14300
C1799       C  0.88140560  0.61057436  0.81931550    -0.23400
H1800       H  0.89518605  0.57847575  0.83958749     0.15600
H1801       H  0.90124188  0.56892399  0.76619841     0.15600
C1802       C  0.91501902  0.53663077  0.78651721    -0.23300
H1803       H  0.88107597  0.61011455  0.83594963     0.05900
H1804       H  0.86566426  0.61209592  0.81390699     0.09100
H1805       H  0.89022787  0.62397960  0.81476419     0.09100
H1806       H  0.90536206  0.52377977  0.79101158     0.09100
H1807       H  0.93061746  0.53412446  0.79192036     0.09100
H1808       H  0.91541674  0.53714539  0.76987843     0.05800
C1809       C  0.86995798  0.57841685  0.66641496    -0.20000
C1810       C  0.86905991  0.55811255  0.67189018    -0.06500
C1811       C  0.85973555  0.55266266  0.69014031     0.14300
C1812       C  0.85288521  0.56778286  0.70312029    -0.20000
C1813       C  0.85586932  0.58816295  0.69863512    -0.06500
C1814       C  0.86379401  0.59355906  0.67969572     0.14300
C1815       C  0.86609089  0.61521212  0.67349456    -0.23400
H1816       H  0.87689925  0.58252842  0.65230380     0.15600
H1817       H  0.84664133  0.56364507  0.71754501     0.15600
C1818       C  0.85723873  0.53097684  0.69612364    -0.23300
H1819       H  0.87130460  0.61657645  0.65773988     0.05900
H1820       H  0.87735318  0.62290383  0.68308525     0.09100
H1821       H  0.85137886  0.62297168  0.67473333     0.09100
H1822       H  0.87214887  0.52387950  0.69839415     0.09100
H1823       H  0.84887192  0.52277309  0.68425109     0.09100
H1824       H  0.84870377  0.52944873  0.71034749     0.05800
C1825       C  0.85289832  0.45960390  0.78924609    -0.20000
C1826       C  0.85640251  0.43914162  0.79279608    -0.06500
C1827       C  0.86299243  0.43298435  0.81201631     0.14300
C1828       C  0.86816093  0.44754299  0.82638518    -0.20000
C1829       C  0.86710684  0.46806735  0.82188420    -0.06500
C1830       C  0.85826976  0.47418144  0.80356849     0.14300
C1831       C  0.85469160  0.49605796  0.79903308    -0.23400
H1832       H  0.84734531  0.46430984  0.77470439     0.15600
H1833       H  0.87449972  0.44285972  0.84061158     0.15600
C1834       C  0.86469863  0.41107974  0.81740666    -0.23300
H1835       H  0.84661619  0.49808245  0.78459370     0.05900
H1836       H  0.86917034  0.50428283  0.79797034     0.09100
H1837       H  0.84536862  0.50279120  0.81108118     0.09100
H1838       H  0.87634205  0.40362498  0.80816153     0.09100
H1839       H  0.84993601  0.40363250  0.81499487     0.09100
H1840       H  0.86895711  0.40899102  0.83336722     0.05800
C1841       C  0.89686127  0.43110463  0.68214779    -0.20000
C1842       C  0.89803783  0.43532613  0.70269137    -0.06500
C1843       C  0.90636659  0.45377210  0.70913258     0.14300
C1844       C  0.91178105  0.46825354  0.69481958    -0.20000
C1845       C  0.90829231  0.46494327  0.67435104    -0.06500
C1846       C  0.90155040  0.44586436  0.66784962     0.14300
C1847       C  0.89881173  0.44118610  0.64590855    -0.23400
H1848       H  0.89055421  0.41688619  0.67729640     0.15600
H1849       H  0.91719066  0.48281571  0.69973804     0.15600
C1850       C  0.90899561  0.45841348  0.73110166    -0.23300
H1851       H  0.89440415  0.42527413  0.64349526     0.05900
H1852       H  0.91314240  0.44391711  0.63780971     0.09100
H1853       H  0.88681144  0.45072168  0.63938735     0.09100
H1854       H  0.91850920  0.44671034  0.73819609     0.09100
H1855       H  0.89417721  0.45886911  0.73871562     0.09100
H1856       H  0.91639772  0.47319437  0.73345300     0.05800
C1857       C  0.86516811  0.32468940  0.80612396    -0.20000
C1858       C  0.88159796  0.31203026  0.80220508    -0.06500
C1859       C  0.89348875  0.31589964  0.78497607     0.14300
C1860       C  0.88867475  0.33227760  0.77240535    -0.20000
C1861       C  0.87218672  0.34485671  0.77641208    -0.06500
C1862       C  0.86034891  0.34095004  0.79363294     0.14300
C1863       C  0.84311645  0.35436666  0.79962412    -0.23400
H1864       H  0.85604247  0.32200278  0.81930520     0.15600
H1865       H  0.89790362  0.33532104  0.75937394     0.15600
C1866       C  0.91161462  0.30332049  0.78001267    -0.23300
H1867       H  0.83650979  0.34990438  0.81424204     0.05900
H1868       H  0.83094138  0.35354277  0.78826249     0.09100
H1869       H  0.84852277  0.37007089  0.80107467     0.09100
H1870       H  0.90691402  0.28757653  0.77716492     0.09100
H1871       H  0.92252436  0.30380350  0.79262643     0.09100
H1872       H  0.91944457  0.30883523  0.76638090     0.05800
C1873       C  0.95200336  0.21376902  0.84303802    -0.20000
C1874       C  0.93205286  0.21283790  0.84983934    -0.06500
C1875       C  0.92535632  0.19530770  0.85980387     0.14300
C1876       C  0.93904401  0.17976888  0.86373034    -0.20000
C1877       C  0.95952643  0.18143693  0.85868996    -0.06500
C1878       C  0.96595470  0.19853448  0.84766496     0.14300
C1879       C  0.98764491  0.20161812  0.84182654    -0.23400
H1880       H  0.95708734  0.22720001  0.83536389     0.15600
H1881       H  0.93387099  0.16667077  0.87190568     0.15600
C1882       C  0.90383966  0.19292988  0.86662565    -0.23300
H1883       H  0.98985761  0.21580774  0.83335998     0.05900
H1884       H  0.99269496  0.18907304  0.83212834     0.09100
H1885       H  0.99720839  0.20244842  0.85546116     0.09100
H1886       H  0.89348174  0.19520644  0.85376098     0.09100
H1887       H  0.90036188  0.20392146  0.87860959     0.09100
H1888       H  0.90094766  0.17773218  0.87285742     0.05800
C1889       C  0.06153929  0.22437662  0.88797040    -0.20000
C1890       C  0.08084026  0.21793875  0.88225783    -0.06500
C1891       C  0.08564023  0.19732212  0.88405995     0.14300
C1892       C  0.07064999  0.18362317  0.89003995    -0.20000
C1893       C  0.05098049  0.18988877  0.89456842    -0.06500
C1894       C  0.04663015  0.21070011  0.89427750     0.14300
C1895       C  0.02601910  0.21855833  0.89939234    -0.23400
H1896       H  0.05784564  0.24016795  0.88671865     0.15600
H1897       H  0.07410137  0.16772852  0.89036695     0.15600
C1898       C  0.10610724  0.18940582  0.87847494    -0.23300
H1899       H  0.02521980  0.23515595  0.89800749     0.05900
H1900       H  0.02225172  0.21459173  0.91510760     0.09100
H1901       H  0.01462839  0.21200704  0.88910088     0.09100
H1902       H  0.11773971  0.19629479  0.88826858     0.09100
H1903       H  0.10941666  0.19295421  0.86255357     0.09100
H1904       H  0.10705361  0.17286398  0.88033170     0.05800
C1905       C  0.95022436  0.45263761  0.88916810    -0.20000
C1906       C  0.95343611  0.46378222  0.87161387    -0.06500
C1907       C  0.97001928  0.45885190  0.85929108     0.14300
C1908       C  0.98267401  0.44275939  0.86476406    -0.20000
C1909       C  0.97916884  0.43129475  0.88217630    -0.06500
C1910       C  0.96261840  0.43649099  0.89457158     0.14300
C1911       C  0.95715523  0.42473675  0.91312774    -0.23400
H1912       H  0.93753136  0.45637747  0.89865279     0.15600
H1913       H  0.99518525  0.43888244  0.85513430     0.15600
C1914       C  0.97391155  0.46978022  0.83991509    -0.23300
H1915       H  0.94333237  0.43058728  0.92040366     0.05900
H1916       H  0.96948923  0.42574470  0.92430916     0.09100
H1917       H  0.95425237  0.40880747  0.90913178     0.09100
H1918       H  0.97714457  0.48583744  0.84298251     0.09100
H1919       H  0.96054179  0.46852093  0.82998387     0.09100
H1920       H  0.98701897  0.46345449  0.83178024     0.05800
C1921       C  0.92941323  0.32714532  0.88424394    -0.20000
C1922       C  0.93446628  0.30673231  0.88443233    -0.06500
C1923       C  0.95343731  0.30079044  0.89196637     0.14300
C1924       C  0.96753788  0.31555485  0.89751632    -0.20000
C1925       C  0.96326563  0.33605075  0.89517942    -0.06500
C1926       C  0.94367635  0.34192410  0.88924343     0.14300
C1927       C  0.93778902  0.36373091  0.88790610    -0.23400
H1928       H  0.91473851  0.33162660  0.87872420     0.15600
H1929       H  0.98243773  0.31105728  0.90235907     0.15600
C1930       C  0.95890434  0.27892775  0.89400131    -0.23300
H1931       H  0.92156868  0.36550858  0.88428574     0.05900
H1932       H  0.94647533  0.37138702  0.87595226     0.09100
H1933       H  0.94067924  0.37122597  0.90249195     0.09100
H1934       H  0.95937978  0.27163738  0.87906943     0.09100
H1935       H  0.94760899  0.27118854  0.90353494     0.09100
H1936       H  0.97391742  0.27698238  0.90106469     0.05800
C1937       C  0.04625606  0.32230155  0.84930241    -0.20000
C1938       C  0.05356562  0.34067409  0.85660767    -0.06500
C1939       C  0.07454095  0.34425644  0.85683060     0.14300
C1940       C  0.08770616  0.32879415  0.85104619    -0.20000
C1941       C  0.08036484  0.30995932  0.84493125    -0.06500
C1942       C  0.05936677  0.30690733  0.84343224     0.14300
C1943       C  0.05067689  0.28689954  0.83730763    -0.23400
H1944       H  0.03016563  0.31955689  0.84933922     0.15600
H1945       H  0.10382542  0.33104440  0.85229132     0.15600
C1946       C  0.08311807  0.36371685  0.86463535    -0.23300
H1947       H  0.03396894  0.28695567  0.83763489     0.05900
H1948       H  0.05595154  0.27500536  0.84771999     0.09100
H1949       H  0.05543961  0.28322397  0.82180526     0.09100
H1950       H  0.07838333  0.36606501  0.88041935     0.09100
H1951       H  0.07767475  0.37638917  0.85529929     0.09100
H1952       H  0.09982541  0.36380200  0.86420392     0.05800
C1953       C  0.18932772  0.28450675  0.87107723    -0.20000
C1954       C  0.17473742  0.29098888  0.85725677    -0.06500
C1955       C  0.17711119  0.31009213  0.84819828     0.14300
C1956       C  0.19361193  0.32218848  0.85345884    -0.20000
C1957       C  0.20819854  0.31590416  0.86739703    -0.06500
C1958       C  0.20610368  0.29656141  0.87611982     0.14300
C1959       C  0.22116870  0.28854163  0.89096582    -0.23400
H1960       H  0.18757864  0.26988450  0.87799545     0.15600
H1961       H  0.19500008  0.33687369  0.84660742     0.15600
C1962       C  0.16195692  0.31833770  0.83348469    -0.23300
H1963       H  0.21704674  0.27327852  0.89629031     0.05900
H1964       H  0.22191927  0.29854673  0.90425076     0.09100
H1965       H  0.23621498  0.28752175  0.88383569     0.09100
H1966       H  0.14676685  0.31857409  0.84039743     0.09100
H1967       H  0.16172431  0.30898067  0.81972559     0.09100
H1968       H  0.16566158  0.33392392  0.82883463     0.05800
C1969       C  0.30319461  0.35741887  0.94275840    -0.20000
C1970       C  0.30680521  0.36049069  0.92229238    -0.06500
C1971       C  0.32619830  0.36662067  0.91599428     0.14300
C1972       C  0.34106106  0.37081302  0.93043874    -0.20000
C1973       C  0.33682328  0.36953937  0.95100184    -0.06500
C1974       C  0.31794194  0.36183177  0.95719887     0.14300
C1975       C  0.31272656  0.35836217  0.97891558    -0.23400
H1976       H  0.28841534  0.35250296  0.94762261     0.15600
H1977       H  0.35553477  0.37662037  0.92565956     0.15600
C1978       C  0.33120003  0.36905467  0.89409353    -0.23300
H1979       H  0.30061304  0.36884949  0.98350789     0.05900
H1980       H  0.32579149  0.36031202  0.98907936     0.09100
H1981       H  0.30730326  0.34271008  0.98089257     0.09100
H1982       H  0.32208827  0.38127643  0.88740339     0.09100
H1983       H  0.32810716  0.35479264  0.88603366     0.09100
H1984       H  0.34730231  0.37293629  0.89184091     0.05800
C1985       C  0.06272070  0.38182238  0.95714538    -0.20000
C1986       C  0.06183707  0.39156520  0.93841596    -0.06500
C1987       C  0.07780911  0.40483715  0.93318556     0.14300
C1988       C  0.09354034  0.40827654  0.94684130    -0.20000
C1989       C  0.09451128  0.39845128  0.96541396    -0.06500
C1990       C  0.07893471  0.38484156  0.97053561     0.14300
C1991       C  0.07911464  0.37362211  0.99012990    -0.23400
H1992       H  0.05080200  0.37149968  0.96125437     0.15600
H1993       H  0.10558700  0.41844182  0.94268810     0.15600
C1994       C  0.07893872  0.41530946  0.91314161    -0.23300
H1995       H  0.06539866  0.36426034  0.99203126     0.05900
H1996       H  0.07981552  0.38441262  0.00279274     0.09100
H1997       H  0.09230490  0.36344647  0.99071361     0.09100
H1998       H  0.06568487  0.42521439  0.91110808     0.09100
H1999       H  0.07965139  0.40402629  0.90090613     0.09100
H2000       H  0.09257449  0.42488384  0.91180326     0.05800
C2001       C  0.11144642  0.47567214  0.06746663    -0.20000
C2002       C  0.12765254  0.48424010  0.07801841    -0.06500
C2003       C  0.14751929  0.48023916  0.07132975     0.14300
C2004       C  0.15044936  0.46794473  0.05437805    -0.20000
C2005       C  0.13419346  0.45883234  0.04438488    -0.06500
C2006       C  0.11440936  0.46287562  0.05102487     0.14300
C2007       C  0.09623348  0.45391692  0.04081497    -0.23400
H2008       H  0.09620981  0.47868106  0.07236444     0.15600
H2009       H  0.16563717  0.46460928  0.04948359     0.15600
C2010       C  0.16574294  0.48788603  0.08245389    -0.23300
H2011       H  0.08196407  0.45973211  0.04721332     0.05900
H2012       H  0.09610212  0.43738048  0.04276421     0.09100
H2013       H  0.09645045  0.45768296  0.02461164     0.09100
H2014       H  0.16538701  0.48246609  0.09819335     0.09100
H2015       H  0.16603585  0.50453150  0.08220126     0.09100
H2016       H  0.17997548  0.48251456  0.07559267     0.05800
C2017       C  0.20929904  0.41165300  0.95395078    -0.20000
C2018       C  0.18882608  0.41234620  0.94897448    -0.06500
C2019       C  0.18272164  0.40801349  0.92913388     0.14300
C2020       C  0.19710559  0.40149288  0.91515651    -0.20000
C2021       C  0.21723229  0.39866531  0.92082683    -0.06500
C2022       C  0.22357167  0.40452868  0.94021170     0.14300
C2023       C  0.24527530  0.40287012  0.94663094    -0.23400
H2024       H  0.21390980  0.41510832  0.96916015     0.15600
H2025       H  0.19234654  0.39718955  0.90020547     0.15600
C2026       C  0.16103638  0.40994739  0.92281583    -0.23300
H2027       H  0.24769804  0.40910464  0.96188662     0.05900
H2028       H  0.25497645  0.41135092  0.93605115     0.09100
H2029       H  0.25001556  0.38691790  0.94693863     0.09100
H2030       H  0.15588087  0.42558213  0.92537278     0.09100
H2031       H  0.15145411  0.39949295  0.93156180     0.09100
H2032       H  0.15897635  0.40640463  0.90666712     0.05800
C2033       C  0.21901151  0.39988812  0.18998448    -0.20000
C2034       C  0.20883160  0.38426229  0.19978619    -0.06500
C2035       C  0.21205161  0.36429159  0.19333968     0.14300
C2036       C  0.22483794  0.36054963  0.17695114    -0.20000
C2037       C  0.23436766  0.37623391  0.16641586    -0.06500
C2038       C  0.23141374  0.39624183  0.17322862     0.14300
C2039       C  0.24038957  0.41401958  0.16247797    -0.23400
H2040       H  0.21639165  0.41519187  0.19482767     0.15600
H2041       H  0.22704308  0.34519308  0.17208833     0.15600
C2042       C  0.20222583  0.34679172  0.20385235    -0.23300
H2043       H  0.23596818  0.42845260  0.16952203     0.05900
H2044       H  0.23503573  0.41430803  0.14670118     0.09100
H2045       H  0.25705694  0.41315691  0.16289168     0.09100
H2046       H  0.18564434  0.34752134  0.20211631     0.09100
H2047       H  0.20617795  0.34706625  0.22002796     0.09100
H2048       H  0.20724231  0.33219060  0.19759272     0.05800
C2049       C  0.22023337  0.36333026  0.04920768    -0.20000
C2050       C  0.21534861  0.36379974  0.06963055    -0.06500
C2051       C  0.19560377  0.36905430  0.07544664     0.14300
C2052       C  0.18153663  0.37485866  0.06073907    -0.20000
C2053       C  0.18699203  0.37610579  0.04044908    -0.06500
C2054       C  0.20638907  0.36964434  0.03455779     0.14300
C2055       C  0.21262061  0.36954820  0.01283609    -0.33000
H2056       H  0.23537659  0.35924106  0.04479511     0.15600
H2057       H  0.16665974  0.37971658  0.06525435     0.15600
C2058       C  0.18946545  0.36875798  0.09717510    -0.23300
H2059       H  0.22791637  0.36317157  0.01084140     0.05900
H2060       H  0.21286170  0.38505132  0.00677944     0.09100
H2061       H  0.20190236  0.36027450  0.00400547     0.09100
H2062       H  0.19849452  0.37979325  0.10583024     0.09100
H2063       H  0.19189573  0.35351523  0.10346306     0.09100
H2064       H  0.17333523  0.37263102  0.09907239     0.05800
C2065       C  0.32631069  0.39738244  0.07609650    -0.20000
C2066       C  0.30593124  0.39570524  0.07074648    -0.06500
C2067       C  0.29988625  0.40121872  0.05112637     0.14300
C2068       C  0.31448384  0.40722848  0.03713881    -0.20000
C2069       C  0.33501713  0.40692050  0.04192901    -0.06500
C2070       C  0.34100180  0.40246346  0.06177797     0.14300
C2071       C  0.36286548  0.40272061  0.06779857    -0.23400
H2072       H  0.33093846  0.39324032  0.09111498     0.15600
H2073       H  0.30996036  0.41066355  0.02190298     0.15600
C2074       C  0.27813775  0.40039037  0.04464559    -0.23300
H2075       H  0.36480879  0.39970222  0.08405686     0.05900
H2076       H  0.36947748  0.41767876  0.06449269     0.09100
H2077       H  0.37126892  0.39102025  0.05947466     0.09100
H2078       H  0.26877915  0.40938931  0.05506040     0.09100
H2079       H  0.27268837  0.38463868  0.04444040     0.09100
H2080       H  0.27604737  0.40651842  0.02930061     0.05800
C2081       C  0.97029508  0.58369109  0.59817354    -0.20000
C2082       C  0.98167384  0.59239946  0.61371227    -0.06500
C2083       C  0.98042669  0.58388454  0.63317689     0.14300
C2084       C  0.96721774  0.56769338  0.63662381    -0.20000
C2085       C  0.95487332  0.56002963  0.62133514    -0.06500
C2086       C  0.95686046  0.56782405  0.60168817     0.14300
C2087       C  0.94498528  0.55955906  0.58421717    -0.23400
H2088       H  0.97140877  0.58974917  0.58313799     0.15600
H2089       H  0.96581532  0.56161367  0.65162597     0.15600
C2090       C  0.99230621  0.59206144  0.65061637    -0.23300
H2091       H  0.94974477  0.56636188  0.56977705     0.05900
H2092       H  0.92875182  0.56290096  0.58608722     0.09100
H2093       H  0.94726665  0.54308931  0.58308795     0.09100
H2094       H  0.98808084  0.60793241  0.65340366     0.09100
H2095       H  0.00865344  0.59100500  0.64740591     0.09100
H2096       H  0.98936868  0.58353300  0.66462039     0.05800
C2097       C  0.06042531  0.65225550  0.53901123    -0.20000
C2098       C  0.05215988  0.63564966  0.54897850    -0.06500
C2099       C  0.05951391  0.61625510  0.54454333     0.14300
C2100       C  0.07565547  0.61415374  0.53113353    -0.20000
C2101       C  0.08503409  0.63090785  0.52219716    -0.06500
C2102       C  0.07688931  0.65025050  0.52592188     0.14300
C2103       C  0.08564169  0.66900943  0.51677891    -0.23400
H2104       H  0.05467698  0.66709646  0.54236457     0.15600
H2105       H  0.08137644  0.59924339  0.52814897     0.15600
C2106       C  0.05033852  0.59765987  0.55370034    -0.23300
H2107       H  0.07709232  0.68263307  0.52116135     0.05900
H2108       H  0.08517532  0.66792415  0.50018757     0.09100
H2109       H  0.10138316  0.67110877  0.52196434     0.09100
H2110       H  0.03394143  0.59723936  0.55050117     0.09100
H2111       H  0.05285414  0.59749605  0.57012915     0.09100
H2112       H  0.05710549  0.58373839  0.54752276     0.05800
C2113       C  0.83587580  0.80881715  0.64514514    -0.20000
C2114       C  0.83903663  0.79257697  0.63209933    -0.06500
C2115       C  0.82513618  0.78942496  0.61625367     0.14300
C2116       C  0.80934852  0.80326295  0.61330596    -0.20000
C2117       C  0.80690279  0.82007911  0.62584437    -0.06500
C2118       C  0.82008566  0.82242225  0.64242252     0.14300
C2119       C  0.81767011  0.83897999  0.65768416    -0.23400
H2120       H  0.84611775  0.81119981  0.65758594     0.15600
H2121       H  0.79909504  0.80113532  0.60082904     0.15600
C2122       C  0.82656030  0.77150576  0.60256296    -0.23300
H2123       H  0.82832457  0.83734172  0.67042509     0.05900
H2124       H  0.80220249  0.83862338  0.66395262     0.09100
H2125       H  0.82075034  0.85378706  0.65071789     0.09100
H2126       H  0.82602137  0.75747705  0.61154720     0.09100
H2127       H  0.84076582  0.77212382  0.59387608     0.09100
H2128       H  0.81391446  0.77101093  0.59166402     0.05800
C2129       C  0.89136253  0.71001955  0.70624737    -0.20000
C2130       C  0.87638662  0.71637014  0.69277383    -0.06500
C2131       C  0.85741962  0.70660354  0.69309699     0.14300
C2132       C  0.85428358  0.69048159  0.70625014    -0.20000
C2133       C  0.86956805  0.68334388  0.71896521    -0.06500
C2134       C  0.88831729  0.69358215  0.71919792     0.14300
C2135       C  0.90528596  0.68735714  0.73283836    -0.23400
H2136       H  0.90588780  0.71745948  0.70609504     0.15600
H2137       H  0.83981317  0.68295295  0.70605155     0.15600
C2138       C  0.84024458  0.71291893  0.67969280    -0.23300
H2139       H  0.91846044  0.69756136  0.73151559     0.05900
H2140       H  0.91044801  0.67203181  0.72887604     0.09100
H2141       H  0.90017850  0.68771280  0.74867065     0.09100
H2142       H  0.84391317  0.70972363  0.66379446     0.09100
H2143       H  0.83718360  0.72917265  0.68170296     0.09100
H2144       H  0.82615943  0.70462845  0.68318561     0.05800
C2145       C  0.92819023  0.69229950  0.62584978    -0.20000
C2146       C  0.92590157  0.71026043  0.61515504    -0.06500
C2147       C  0.93761352  0.71351360  0.59779246     0.14300
C2148       C  0.95290142  0.69973408  0.59290951    -0.20000
C2149       C  0.95659966  0.68280404  0.60495648    -0.06500
C2150       C  0.94313465  0.67838477  0.62084360     0.14300
C2151       C  0.94431039  0.65911877  0.63271535    -0.23400
H2152       H  0.91875193  0.68954891  0.63881046     0.15600
H2153       H  0.96276012  0.70286151  0.58035651     0.15600
C2154       C  0.93489618  0.73203140  0.58514279    -0.23300
H2155       H  0.93124037  0.65736703  0.64293056     0.05900
H2156       H  0.95803025  0.65892105  0.64218143     0.09100
H2157       H  0.94433036  0.64606760  0.62235007     0.09100
H2158       H  0.93760477  0.74567041  0.59432054     0.09100
H2159       H  0.91934594  0.73238855  0.57904170     0.09100
H2160       H  0.94549037  0.73232927  0.57229166     0.05800
C2161       C  0.94378368  0.90893348  0.52794686    -0.20000
C2162       C  0.93197846  0.89300797  0.52050382    -0.06500
C2163       C  0.93822246  0.87301284  0.52452514     0.14300
C2164       C  0.95503949  0.86966327  0.53696725    -0.20000
C2165       C  0.96568737  0.88566134  0.54565024    -0.06500
C2166       C  0.96046749  0.90552941  0.54043017     0.14300
C2167       C  0.97261005  0.92321982  0.54776833    -0.23400
H2168       H  0.93964087  0.92425846  0.52445599     0.15600
H2169       H  0.95927888  0.85442720  0.54078094     0.15600
C2170       C  0.92702598  0.85505020  0.51643122    -0.23300
H2171       H  0.96722729  0.93755173  0.54118040     0.05900
H2172       H  0.98862946  0.92128563  0.54346507     0.09100
H2173       H  0.97145542  0.92455677  0.56428820     0.09100
H2174       H  0.92692427  0.85550302  0.49979520     0.09100
H2175       H  0.91137017  0.85493149  0.52221007     0.09100
H2176       H  0.93417406  0.84071231  0.52102356     0.05800
C2177       C  0.97316098  0.81303055  0.62813847    -0.20000
C2178       C  0.96856877  0.83354930  0.62993722    -0.06500
C2179       C  0.95050310  0.83911989  0.63975304     0.14300
C2180       C  0.93672705  0.82400819  0.64554557    -0.20000
C2181       C  0.94066012  0.80364192  0.64172307    -0.06500
C2182       C  0.95946878  0.79809374  0.63372020     0.14300
C2183       C  0.96517455  0.77636217  0.63088138    -0.23400
H2184       H  0.98729670  0.80853986  0.62141882     0.15600
H2185       H  0.92237187  0.82816204  0.65201193     0.15600
C2186       C  0.94526681  0.86077748  0.64347963    -0.23300
H2187       H  0.98090248  0.77474790  0.62550565     0.05900
H2188       H  0.95520862  0.76917367  0.61962969     0.09100
H2189       H  0.96387542  0.76826705  0.64536889     0.09100
H2190       H  0.94409150  0.86894639  0.62903179     0.09100
H2191       H  0.95705245  0.86784338  0.65297507     0.09100
H2192       H  0.93065563  0.86229052  0.65139878     0.05800
C2193       C  0.19060910  0.72321967  0.64880471    -0.20000
C2194       C  0.18237835  0.73416716  0.63273269    -0.06500
C2195       C  0.19194249  0.73294593  0.61374362     0.14300
C2196       C  0.20779595  0.71922424  0.61096899    -0.20000
C2197       C  0.21444964  0.70681923  0.62662096    -0.06500
C2198       C  0.20654192  0.70973491  0.64606310     0.14300
C2199       C  0.21497062  0.69895515  0.66410499    -0.23400
H2200       H  0.18414283  0.72469267  0.66362795     0.15600
H2201       H  0.21433687  0.71745101  0.59619505     0.15600
C2202       C  0.18552851  0.74569371  0.59622204    -0.23300
H2203       H  0.20817386  0.70445586  0.67827442     0.05900
H2204       H  0.23146593  0.70153380  0.66503516     0.09100
H2205       H  0.21182874  0.68263765  0.66316095     0.09100
H2206       H  0.18652916  0.76182203  0.60033427     0.09100
H2207       H  0.16990891  0.74186160  0.59173852     0.09100
H2208       H  0.19530928  0.74329631  0.58294849     0.05800
C2209       C  0.06268685  0.72155399  0.64467386    -0.20000
C2210       C  0.08288482  0.71566257  0.64630942    -0.06500
C2211       C  0.08785777  0.69521675  0.64336098     0.14300
C2212       C  0.07280842  0.68158438  0.63726329    -0.20000
C2213       C  0.05307298  0.68802400  0.63340371    -0.06500
C2214       C  0.04777479  0.70810693  0.63799268     0.14300
C2215       C  0.02648029  0.71557493  0.63570814    -0.23400
H2216       H  0.05878310  0.73713503  0.64721358     0.15600
H2217       H  0.07679988  0.66612349  0.63420099     0.15600
C2218       C  0.10901620  0.68771769  0.64643935    -0.23300
H2219       H  0.02481458  0.73116873  0.64135385     0.05900
H2220       H  0.01607524  0.70581541  0.64436047     0.09100
H2221       H  0.02200808  0.71562385  0.61969114     0.09100
H2222       H  0.11426821  0.69172670  0.66173501     0.09100
H2223       H  0.11927335  0.69440291  0.63515961     0.09100
H2224       H  0.10991439  0.67114730  0.64485673     0.05800
C2225       C  0.09359314  0.82469621  0.60881166    -0.20000
C2226       C  0.09020268  0.80413300  0.60575977    -0.06500
C2227       C  0.07251891  0.79791950  0.59557896     0.14300
C2228       C  0.05781123  0.81227318  0.59060168    -0.20000
C2229       C  0.06026194  0.83253555  0.59585400    -0.06500
C2230       C  0.07873016  0.83893901  0.60427405     0.14300
C2231       C  0.08273540  0.86076428  0.60879150    -0.23400
H2232       H  0.10725913  0.82952776  0.61630342     0.15600
H2233       H  0.04381019  0.80745696  0.58373294     0.15600
C2234       C  0.06903886  0.77624390  0.58999011    -0.23300
H2235       H  0.09837027  0.86323156  0.61416825     0.05900
H2236       H  0.07242016  0.86616172  0.62066825     0.09100
H2237       H  0.08055422  0.86985404  0.59500961     0.09100
H2238       H  0.06731283  0.76683983  0.60358747     0.09100
H2239       H  0.08191780  0.77070017  0.58097546     0.09100
H2240       H  0.05514838  0.77436792  0.58089770     0.05800
C2241       C  0.61579623  0.57971196  0.17025263    -0.20000
C2242       C  0.61119118  0.56028182  0.17702406    -0.06500
C2243       C  0.61122740  0.55630616  0.19783304     0.14300
C2244       C  0.61741068  0.57140051  0.21120488    -0.20000
C2245       C  0.62330321  0.59046458  0.20434497    -0.06500
C2246       C  0.62154167  0.59497015  0.18369405     0.14300
C2247       C  0.62695601  0.61538368  0.17556209    -0.23400
H2248       H  0.61569315  0.58271347  0.15429598     0.15600
H2249       H  0.61862182  0.56798629  0.22705207     0.15600
C2250       C  0.60624732  0.53574662  0.20590037    -0.23300
H2251       H  0.62505012  0.61614176  0.15904585     0.05900
H2252       H  0.64290921  0.61893561  0.17907704     0.09100
H2253       H  0.61702357  0.62691934  0.18233176     0.09100
H2254       H  0.61671908  0.52446050  0.19952719     0.09100
H2255       H  0.59054245  0.53171542  0.20185852     0.09100
H2256       H  0.60756404  0.53513327  0.22248390     0.05800
C2257       C  0.64891806  0.58178623  0.32962120    -0.20000
C2258       C  0.65137698  0.56128243  0.32549438    -0.06500
C2259       C  0.66093226  0.55541704  0.30750708     0.14300
C2260       C  0.66620651  0.57008298  0.29331710    -0.20000
C2261       C  0.66151462  0.59035632  0.29641619    -0.06500
C2262       C  0.65357129  0.59641886  0.31512411     0.14300
C2263       C  0.64961020  0.61822369  0.31968154    -0.23400
H2264       H  0.64178437  0.58625911  0.34351291     0.15600
H2265       H  0.67256485  0.56550388  0.27909255     0.15600
C2266       C  0.66518038  0.53364693  0.30303827    -0.23300
H2267       H  0.64444476  0.62036820  0.33535585     0.05900
H2268       H  0.63772042  0.62416727  0.30963821     0.09100
H2269       H  0.66363917  0.62706713  0.31759981     0.09100
H2270       H  0.65092543  0.52506313  0.30167047     0.09100
H2271       H  0.67445263  0.52713632  0.31526468     0.09100
H2272       H  0.67353541  0.53183431  0.28875242     0.05800
C2273       C  0.65736939  0.43518165  0.18286778    -0.20000
C2274       C  0.66188160  0.44157410  0.20239235    -0.06500
C2275       C  0.66093273  0.46221261  0.20712138     0.14300
C2276       C  0.65418308  0.47581385  0.19252261    -0.20000
C2277       C  0.64857667  0.46928327  0.17329458    -0.06500
C2278       C  0.65081344  0.44882156  0.16819286     0.14300
C2279       C  0.64478934  0.44106567  0.14784188    -0.23400
H2280       H  0.65792344  0.41928677  0.17942389     0.15600
H2281       H  0.65228124  0.49149276  0.19643257     0.15600
C2282       C  0.66551209  0.46971492  0.22795751    -0.23300
H2283       H  0.64703503  0.42459482  0.14658086     0.05900
H2284       H  0.65404619  0.44844101  0.13611949     0.09100
H2285       H  0.62863174  0.44427111  0.14505364     0.09100
H2286       H  0.68131019  0.46607756  0.23194477     0.09100
H2287       H  0.65519943  0.46253221  0.23891188     0.09100
H2288       H  0.66361015  0.48623363  0.22915293     0.05800
C2289       C  0.62469150  0.44953311  0.32708668    -0.20000
C2290       C  0.61571939  0.46732086  0.32009624    -0.06500
C2291       C  0.61112018  0.46906339  0.29942765     0.14300
C2292       C  0.61699286  0.45369052  0.28620583    -0.20000
C2293       C  0.62690994  0.43645596  0.29314225    -0.06500
C2294       C  0.63023714  0.43405968  0.31389213     0.14300
C2295       C  0.64090008  0.41582459  0.32199007    -0.23400
H2296       H  0.62816438  0.44808946  0.34289581     0.15600
H2297       H  0.61465880  0.45552206  0.27022160     0.15600
C2298       C  0.60126407  0.48757574  0.29098300    -0.23300
H2299       H  0.64266174  0.41652221  0.33853122     0.05900
H2300       H  0.65613343  0.41466239  0.31526578     0.09100
H2301       H  0.63211966  0.40211606  0.31829856     0.09100
H2302       H  0.61068143  0.50098428  0.29420326     0.09100
H2303       H  0.58614615  0.48950534  0.29775682     0.09100
H2304       H  0.59927013  0.48654730  0.27447933     0.05800
C2305       C  0.54036580  0.43897754  0.12980466    -0.20000
C2306       C  0.54005528  0.43191341  0.10989612    -0.06500
C2307       C  0.55150906  0.44247954  0.09528098     0.14300
C2308       C  0.56337198  0.45895122  0.10116253    -0.20000
C2309       C  0.56430996  0.46535320  0.12115356    -0.06500
C2310       C  0.55236298  0.45544816  0.13562341     0.14300
C2311       C  0.55303541  0.46141233  0.15739805    -0.23400
H2312       H  0.53164837  0.43117313  0.14110592     0.15600
H2313       H  0.57245659  0.46666439  0.09006462     0.15600
C2314       C  0.55183363  0.43649963  0.07347696    -0.23300
H2315       H  0.54337136  0.45156951  0.16678060     0.05900
H2316       H  0.54759242  0.47705139  0.15914432     0.09100
H2317       H  0.56869662  0.46027838  0.16311705     0.09100
H2318       H  0.53634079  0.43683900  0.06724698     0.09100
H2319       H  0.55836027  0.42126402  0.07185409     0.09100
H2320       H  0.56118034  0.44686804  0.06432672     0.05800
C2321       C  0.43814906  0.41002385  0.03416286    -0.20000
C2322       C  0.43151168  0.39455969  0.02142617    -0.06500
C2323       C  0.44261459  0.37637736  0.02100988     0.14300
C2324       C  0.45920950  0.37393510  0.03401975    -0.20000
C2325       C  0.46489830  0.38896932  0.04773658    -0.06500
C2326       C  0.45441632  0.40751814  0.04733410     0.14300
C2327       C  0.45996111  0.42491988  0.06076768    -0.23400
H2328       H  0.43008375  0.42413015  0.03439847     0.15600
H2329       H  0.46728283  0.35981922  0.03402576     0.15600
C2330       C  0.43706039  0.35933606  0.00720717    -0.23300
H2331       H  0.45106651  0.43857989  0.05726650     0.05900
H2332       H  0.47609938  0.42878039  0.05880669     0.09100
H2333       H  0.45685482  0.42107762  0.07664847     0.09100
H2334       H  0.43725537  0.36459690  0.99141678     0.09100
H2335       H  0.42189214  0.35351550  0.01106481     0.09100
H2336       H  0.44777918  0.34662732  0.00846734     0.05800
C2337       C  0.66426053  0.33610671  0.20721283    -0.20000
C2338       C  0.64819919  0.34470508  0.21793111    -0.06500
C2339       C  0.62872715  0.33608563  0.21580888     0.14300
C2340       C  0.62583796  0.31996702  0.20242980    -0.20000
C2341       C  0.64172535  0.31235991  0.19090100    -0.06500
C2342       C  0.66130825  0.32012855  0.19380796     0.14300
C2343       C  0.67928723  0.31137262  0.18317565    -0.23400
H2344       H  0.67929957  0.34215007  0.20900770     0.15600
H2345       H  0.61087618  0.31379867  0.20033426     0.15600
C2346       C  0.61075856  0.34389750  0.22710700    -0.23300
H2347       H  0.69359414  0.31830827  0.18834462     0.05900
H2348       H  0.67813470  0.31400141  0.16680650     0.09100
H2349       H  0.68015573  0.29499462  0.18618342     0.09100
H2350       H  0.60788701  0.35976567  0.22292845     0.09100
H2351       H  0.61348574  0.34271148  0.24348204     0.09100
H2352       H  0.59690043  0.33519988  0.22364783     0.05800
C2353       C  0.59437671  0.32769818  0.10325959    -0.20000
C2354       C  0.58918844  0.30737628  0.10540793    -0.06500
C2355       C  0.56969188  0.30095265  0.09954979     0.14300
C2356       C  0.55550996  0.31521264  0.09315288    -0.20000
C2357       C  0.55997835  0.33578618  0.09342388    -0.06500
C2358       C  0.57987789  0.34206446  0.09777067     0.14300
C2359       C  0.58577713  0.36392327  0.09709941    -0.23400
H2360       H  0.60934365  0.33260270  0.10752319     0.15600
H2361       H  0.54030956  0.31040788  0.08964002     0.15600
C2362       C  0.56349677  0.27916899  0.10055118    -0.23300
H2363       H  0.60215441  0.36601294  0.09972272     0.05900
H2364       H  0.57770823  0.37245527  0.10887014     0.09100
H2365       H  0.58208496  0.37027333  0.08215713     0.09100
H2366       H  0.56292367  0.27400742  0.11634621     0.09100
H2367       H  0.57434194  0.26984484  0.09202516     0.09100
H2368       H  0.54830402  0.27672293  0.09402125     0.05800
C2369       C  0.33455771  0.28793454  0.11620620    -0.20000
C2370       C  0.34384570  0.28939390  0.13516962    -0.06500
C2371       C  0.33591964  0.30337555  0.14921025     0.14300
C2372       C  0.31968100  0.31564372  0.14370025    -0.20000
C2373       C  0.31077641  0.31450143  0.12469207    -0.06500
C2374       C  0.31819583  0.30030193  0.11078956     0.14300
C2375       C  0.30963264  0.29881437  0.08992810    -0.23400
H2376       H  0.34041239  0.27738070  0.10533390     0.15600
H2377       H  0.31398632  0.32652608  0.15434489     0.15600
C2378       C  0.34450802  0.30602603  0.17000048    -0.23300
H2379       H  0.31767782  0.28746249  0.08077080     0.05900
H2380       H  0.31098892  0.31354491  0.08224009     0.09100
H2381       H  0.29356000  0.29433236  0.09064521     0.09100
H2382       H  0.36040090  0.31110802  0.16907690     0.09100
H2383       H  0.34347082  0.29167671  0.17840682     0.09100
H2384       H  0.33620656  0.31750150  0.17876591     0.05800
C2385       C  0.43240779  0.32604180  0.13371348    -0.20000
C2386       C  0.43912999  0.30945809  0.14485056    -0.06500
C2387       C  0.45951725  0.30882859  0.15102654     0.14300
C2388       C  0.47283205  0.32407791  0.14474995    -0.20000
C2389       C  0.46627234  0.34012799  0.13273443    -0.06500
C2390       C  0.44561336  0.34140430  0.12769215     0.14300
C2391       C  0.43757513  0.35815733  0.11477548    -0.23400
H2392       H  0.41679311  0.32660114  0.12902136     0.15600
H2393       H  0.48866146  0.32304533  0.14856963     0.15600
C2394       C  0.46763655  0.29155143  0.16313734    -0.23300
H2395       H  0.42121562  0.35643158  0.11179538     0.05900
H2396       H  0.44544650  0.35829506  0.10010205     0.09100
H2397       H  0.43984277  0.37277390  0.12244797     0.09100
H2398       H  0.46534547  0.27725392  0.15488629     0.09100
H2399       H  0.45980224  0.29080572  0.17780044     0.09100
H2400       H  0.48399381  0.29322859  0.16615479     0.05800
C2401       C  0.47335661  0.21035485  0.10156941    -0.20000
C2402       C  0.46859724  0.18986715  0.10077513    -0.06500
C2403       C  0.44881723  0.18350560  0.10536099     0.14300
C2404       C  0.43447533  0.19775213  0.11141282    -0.20000
C2405       C  0.43975385  0.21799274  0.11394779    -0.06500
C2406       C  0.45934244  0.22446059  0.10855069     0.14300
C2407       C  0.46571274  0.24612870  0.11046001    -0.23400
H2408       H  0.48857939  0.21514444  0.09815279     0.15600
H2409       H  0.41949260  0.19283308  0.11555311     0.15600
C2410       C  0.44287819  0.16168307  0.10421384    -0.23300
H2411       H  0.48112044  0.24863774  0.10451173     0.05900
H2412       H  0.46582521  0.25072249  0.12643320     0.09100
H2413       H  0.45520309  0.25584471  0.10192260     0.09100
H2414       H  0.45147345  0.15279723  0.11536899     0.09100
H2415       H  0.44594507  0.15582752  0.08894615     0.09100
H2416       H  0.42662554  0.15949121  0.10741466     0.05800
C2417       C  0.56676105  0.22349727  0.14549707    -0.20000
C2418       C  0.58729491  0.21878183  0.14533868    -0.06500
C2419       C  0.59337926  0.19887308  0.14134494     0.14300
C2420       C  0.57881168  0.18442479  0.13621154    -0.20000
C2421       C  0.55849910  0.18972501  0.13411740    -0.06500
C2422       C  0.55228488  0.20933415  0.13946658     0.14300
C2423       C  0.53050893  0.21558300  0.13830177    -0.23400
H2424       H  0.56218616  0.23878297  0.14867545     0.15600
H2425       H  0.58351831  0.16938778  0.13221668     0.15600
C2426       C  0.61525879  0.19297792  0.14201286    -0.23300
H2427       H  0.52826218  0.23106129  0.14407067     0.05900
H2428       H  0.52114115  0.20523558  0.14742198     0.09100
H2429       H  0.52520224  0.21534276  0.12253552     0.09100
H2430       H  0.62161888  0.19654278  0.15699612     0.09100
H2431       H  0.62385512  0.20119412  0.13035524     0.09100
H2432       H  0.61728356  0.17666511  0.13926482     0.05800
C2433       C  0.57413971  0.11599598  0.05531404    -0.20000
C2434       C  0.56319664  0.13363318  0.05173302    -0.06500
C2435       C  0.56805236  0.14542922  0.03475036     0.14300
C2436       C  0.58408555  0.13954559  0.02228734    -0.20000
C2437       C  0.59543408  0.12216880  0.02625317    -0.06500
C2438       C  0.59009939  0.11008382  0.04295771     0.14300
C2439       C  0.60142663  0.09126911  0.04853445    -0.23400
H2440       H  0.57036953  0.10682387  0.06820298     0.15600
H2441       H  0.58800049  0.14882606  0.00952506     0.15600
C2442       C  0.55702805  0.16460274  0.03005232    -0.23300
H2443       H  0.59536376  0.08416848  0.06233173     0.05900
H2444       H  0.61748345  0.09491744  0.05142900     0.09100
H2445       H  0.60015310  0.08004014  0.03630513     0.09100
H2446       H  0.55834036  0.17516087  0.04286736     0.09100
H2447       H  0.54093095  0.16130029  0.02703835     0.09100
H2448       H  0.56325745  0.17219156  0.01658846     0.05800
C2449       C  0.61056441  0.04654430  0.92607399    -0.20000
C2450       C  0.62602918  0.03485466  0.91771873    -0.06500
C2451       C  0.64536669  0.03551209  0.92680039     0.14300
C2452       C  0.64885074  0.04872225  0.94296465    -0.20000
C2453       C  0.63368690  0.06147401  0.95018488    -0.06500
C2454       C  0.61409077  0.05982255  0.94200707     0.14300
C2455       C  0.59663291  0.07180169  0.95004982    -0.23400
H2456       H  0.59558975  0.04584271  0.91968742     0.15600
H2457       H  0.66378427  0.04972804  0.94943502     0.15600
C2458       C  0.66252274  0.02266969  0.91956274    -0.23300
H2459       H  0.58217114  0.06734037  0.94293701     0.05900
H2460       H  0.59886306  0.08800952  0.94696447     0.09100
H2461       H  0.59517969  0.06929948  0.96643644     0.09100
H2462       H  0.66654090  0.02680157  0.90396158     0.09100
H2463       H  0.65817846  0.00657959  0.92027832     0.09100
H2464       H  0.67622023  0.02468667  0.92891996     0.05800
C2465       C  0.72899964  0.13051269  0.81994824    -0.20000
C2466       C  0.72976866  0.15031277  0.82736684    -0.06500
C2467       C  0.71753467  0.16509909  0.81802927     0.14300
C2468       C  0.70423243  0.15941790  0.80267049    -0.20000
C2469       C  0.70283681  0.13952781  0.79593753    -0.06500
C2470       C  0.71577933  0.12494884  0.80435710     0.14300
C2471       C  0.71510148  0.10335733  0.79767506    -0.23400
H2472       H  0.73839553  0.11910874  0.82676145     0.15600
H2473       H  0.69450864  0.17065172  0.79600299     0.15600
C2474       C  0.71802364  0.18692579  0.82406785    -0.23300
H2475       H  0.72579285  0.09388427  0.80629271     0.05900
H2476       H  0.71925325  0.10232061  0.78160532     0.09100
H2477       H  0.69973637  0.09717342  0.79989175     0.09100
H2478       H  0.73355414  0.19291783  0.82254984     0.09100
H2479       H  0.71269361  0.18863507  0.83972618     0.09100
H2480       H  0.70808211  0.19626925  0.81447393     0.05800
C2481       C  0.81658913  0.21996470  0.88758558    -0.20000
C2482       C  0.80499406  0.21303226  0.87139651    -0.06500
C2483       C  0.80944367  0.21995886  0.85188076     0.14300
C2484       C  0.82617215  0.23247478  0.84887858    -0.20000
C2485       C  0.83876061  0.23828275  0.86481393    -0.06500
C2486       C  0.83351667  0.23237667  0.88458049     0.14300
C2487       C  0.84611271  0.23814666  0.90248478    -0.23400
H2488       H  0.81306849  0.21470010  0.90255217     0.15600
H2489       H  0.82973658  0.23733414  0.83378859     0.15600
C2490       C  0.79651223  0.21437320  0.83413258    -0.23300
H2491       H  0.83999359  0.23178016  0.91661259     0.05900
H2492       H  0.84639377  0.25472663  0.90411716     0.09100
H2493       H  0.86167318  0.23240217  0.90063987     0.09100
H2494       H  0.78063585  0.21857848  0.83711792     0.09100
H2495       H  0.79745409  0.19802853  0.83116316     0.09100
H2496       H  0.80138478  0.22225844  0.82028898     0.05800
C2497       C  0.71819511  0.16079388  0.94331179    -0.20000
C2498       C  0.71317920  0.15983753  0.92293039    -0.06500
C2499       C  0.69363824  0.15366401  0.91718605     0.14300
C2500       C  0.67989340  0.14757508  0.93198348    -0.20000
C2501       C  0.68563616  0.14665711  0.95218458    -0.06500
C2502       C  0.70479191  0.15388680  0.95801805     0.14300
C2503       C  0.71131984  0.15391254  0.97967525    -0.23400
H2504       H  0.73321657  0.16551071  0.94762708     0.15600
H2505       H  0.66518147  0.14202873  0.92760392     0.15600
C2506       C  0.68742366  0.15305841  0.89546512    -0.23300
H2507       H  0.72640780  0.16085634  0.98161558     0.05900
H2508       H  0.71220168  0.13833217  0.98543779     0.09100
H2509       H  0.70039979  0.16257588  0.98878515     0.09100
H2510       H  0.69671139  0.14202931  0.88716076     0.09100
H2511       H  0.68937826  0.16815186  0.88867493     0.09100
H2512       H  0.67140864  0.14857240  0.89371265     0.05800
C2513       C  0.95253513  0.14683613  0.95296859    -0.20000
C2514       C  0.96208957  0.13067754  0.94342446    -0.06500
C2515       C  0.95555314  0.11091230  0.94775897     0.14300
C2516       C  0.93894070  0.10794121  0.96043497    -0.20000
C2517       C  0.92841687  0.12414174  0.96892796    -0.06500
C2518       C  0.93574186  0.14390570  0.96552749     0.14300
C2519       C  0.92563162  0.16211964  0.97432081    -0.23400
H2520       H  0.95758009  0.16197787  0.94972818     0.15600
H2521       H  0.93383244  0.09275078  0.96329362     0.15600
C2522       C  0.96611865  0.09279588  0.93927566    -0.23300
H2523       H  0.93332230  0.17625527  0.96989121     0.05900
H2524       H  0.92595184  0.16126861  0.99093465     0.09100
H2525       H  0.90984106  0.16302606  0.96894030     0.09100
H2526       H  0.98239168  0.09349105  0.94302267     0.09100
H2527       H  0.96415867  0.09216372  0.92278512     0.09100
H2528       H  0.95999810  0.07857885  0.94551023     0.05800
C2529       C  0.86607962  0.05418447  0.05257493    -0.20000
C2530       C  0.88250305  0.06368038  0.04330725    -0.06500
C2531       C  0.90217218  0.05916303  0.04999894     0.14300
C2532       C  0.90484132  0.04601703  0.06623207    -0.20000
C2533       C  0.88842296  0.03736637  0.07640490    -0.06500
C2534       C  0.86871587  0.04120180  0.06908525     0.14300
C2535       C  0.85031529  0.03222368  0.07877187    -0.23400
H2536       H  0.85100722  0.05758940  0.04736938     0.15600
H2537       H  0.92001039  0.04289496  0.07131791     0.15600
C2538       C  0.92051436  0.06794270  0.03995640    -0.23300
H2539       H  0.83625737  0.03693099  0.07108718     0.05900
H2540       H  0.84929482  0.03719931  0.09461493     0.09100
H2541       H  0.85108436  0.01559211  0.07806657     0.09100
H2542       H  0.92102129  0.08442983  0.04223184     0.09100
H2543       H  0.92014026  0.06453472  0.02366845     0.09100
H2544       H  0.93466839  0.06165697  0.04618891     0.05800
C2545       C  0.84005524  0.11918659  0.92747986    -0.20000
C2546       C  0.83288794  0.11151550  0.94574773    -0.06500
C2547       C  0.81194372  0.10920946  0.94853630     0.14300
C2548       C  0.79868614  0.11618996  0.93371648    -0.20000
C2549       C  0.80579593  0.12518783  0.91604811    -0.06500
C2550       C  0.82676034  0.12584974  0.91246258     0.14300
C2551       C  0.83523108  0.13482697  0.89353150    -0.23400
H2552       H  0.85614288  0.12090133  0.92538110     0.15600
H2553       H  0.78260774  0.11556125  0.93639593     0.15600
C2554       C  0.80344097  0.10084190  0.96773454    -0.23300
H2555       H  0.85193916  0.13445658  0.89341000     0.05900
H2556       H  0.83045265  0.15072787  0.89211920     0.09100
H2557       H  0.82979377  0.12617934  0.88036286     0.09100
H2558       H  0.80844388  0.11012842  0.98062505     0.09100
H2559       H  0.80866654  0.08516772  0.96983398     0.09100
H2560       H  0.78672800  0.10069144  0.96761846     0.05800
C2561       C  0.82306067  0.15589138  0.18574706    -0.20000
C2562       C  0.81799948  0.13998926  0.19864486    -0.06500
C2563       C  0.80064272  0.12836509  0.19422753     0.14300
C2564       C  0.78885940  0.13315601  0.17729105    -0.20000
C2565       C  0.79401701  0.14906974  0.16441613    -0.06500
C2566       C  0.81163492  0.16037575  0.16863523     0.14300
C2567       C  0.81928037  0.17653250  0.15470503    -0.23400
H2568       H  0.83644967  0.16471377  0.18879801     0.15600
H2569       H  0.77558701  0.12426530  0.17397954     0.15600
C2570       C  0.79478174  0.11045108  0.20672988    -0.23300
H2571       H  0.83402690  0.18266657  0.15966580     0.05900
H2572       H  0.80854647  0.18924407  0.15421764     0.09100
H2573       H  0.82136353  0.17024243  0.13942913     0.09100
H2574       H  0.79133822  0.11528367  0.22226508     0.09100
H2575       H  0.80724671  0.09936939  0.20687882     0.09100
H2576       H  0.78121199  0.10278204  0.20069550     0.05800
C2577       C  0.70509293  0.20713856  0.14128800    -0.20000
C2578       C  0.71665264  0.21003311  0.12395988    -0.06500
C2579       C  0.71204481  0.22642301  0.11124198     0.14300
C2580       C  0.69533326  0.23867732  0.11568301    -0.20000
C2581       C  0.68325970  0.23526645  0.13268959    -0.06500
C2582       C  0.68861188  0.21939356  0.14588917     0.14300
C2583       C  0.67680587  0.21456551  0.16459393    -0.23400
H2584       H  0.70876439  0.19480023  0.15123687     0.15600
H2585       H  0.69154557  0.25089206  0.10563548     0.15600
C2586       C  0.72417677  0.23073924  0.09267417    -0.23300
H2587       H  0.68298998  0.20135502  0.17266880     0.05900
H2588       H  0.66096519  0.21100862  0.16062461     0.09100
H2589       H  0.67739338  0.22745843  0.17511545     0.09100
H2590       H  0.72379221  0.21755864  0.08249932     0.09100
H2591       H  0.73998239  0.23417631  0.09688488     0.09100
H2592       H  0.71820260  0.24385503  0.08430250     0.05800
C2593       C  0.84110354  0.15241612  0.05630079    -0.20000
C2594       C  0.83397485  0.14917910  0.03673888    -0.06500
C2595       C  0.81392389  0.15460683  0.03191841     0.14300
C2596       C  0.80123431  0.16176674  0.04710213    -0.20000
C2597       C  0.80775483  0.16267393  0.06705547    -0.06500
C2598       C  0.82810220  0.15865507  0.07164587     0.14300
C2599       C  0.83604598  0.16052621  0.09274054    -0.23400
H2600       H  0.85649745  0.14851915  0.05996964     0.15600
H2601       H  0.78561287  0.16496503  0.04367295     0.15600
C2602       C  0.80553437  0.15237667  0.01102209    -0.23300
H2603       H  0.85250805  0.15776609  0.09344363     0.05900
H2604       H  0.82862814  0.14941429  0.10268172     0.09100
H2605       H  0.83317326  0.17590216  0.09846986     0.09100
H2606       H  0.80442335  0.13627922  0.00695661     0.09100
H2607       H  0.81534713  0.16033520  0.00015692     0.09100
H2608       H  0.79016240  0.15879040  0.00977333     0.05800
C2609       C  0.72529530  0.11577223  0.05586592    -0.20000
C2610       C  0.71839036  0.12486874  0.07356491    -0.06500
C2611       C  0.69743351  0.12664636  0.07672452     0.14300
C2612       C  0.68402314  0.12061796  0.06153473    -0.20000
C2613       C  0.69096714  0.11242055  0.04343162    -0.06500
C2614       C  0.71184700  0.10927412  0.04087902     0.14300
C2615       C  0.72011345  0.10027257  0.02189029    -0.23400
H2616       H  0.74137040  0.11447569  0.05341784     0.15600
H2617       H  0.66801851  0.12300589  0.06348678     0.15600
C2618       C  0.68916000  0.13612967  0.09548110    -0.23300
H2619       H  0.73680227  0.09945380  0.02217018     0.05900
H2620       H  0.71562475  0.10953242  0.00880942     0.09100
H2621       H  0.71421635  0.08478415  0.01999361     0.09100
H2622       H  0.69495594  0.15170476  0.09701883     0.09100
H2623       H  0.69373075  0.12717427  0.10875276     0.09100
H2624       H  0.67246330  0.13679535  0.09524791     0.05800
C2625       C  0.62074282  0.81826625  0.79153642    -0.20000
C2626       C  0.63589418  0.81277255  0.80516690    -0.06500
C2627       C  0.65471500  0.82273552  0.80419252     0.14300
C2628       C  0.65762587  0.83819231  0.79016031    -0.20000
C2629       C  0.64223614  0.84442253  0.77706585    -0.06500
C2630       C  0.62353722  0.83404224  0.77767033     0.14300
C2631       C  0.60634938  0.83943101  0.76395467    -0.23400
H2632       H  0.60635361  0.81061084  0.79220079     0.15600
H2633       H  0.67204713  0.84580709  0.78980928     0.15600
C2634       C  0.67204704  0.81699211  0.81764177    -0.23300
H2635       H  0.59319527  0.82935047  0.76612583     0.05900
H2636       H  0.61118567  0.83808802  0.74809223     0.09100
H2637       H  0.60127280  0.85498568  0.76705352     0.09100
H2638       H  0.67521475  0.80070179  0.81611005     0.09100
H2639       H  0.66844833  0.82057689  0.83346824     0.09100
H2640       H  0.68601917  0.82530085  0.81377327     0.05800
C2641       C  0.55075874  0.93361746  0.89644994    -0.20000
C2642       C  0.53628532  0.92844292  0.88192622    -0.06500
C2643       C  0.53516270  0.94010724  0.86414940     0.14300
C2644       C  0.54889154  0.95600167  0.86120588    -0.20000
C2645       C  0.56399734  0.96036448  0.87529751    -0.06500
C2646       C  0.56461428  0.94925348  0.89337639     0.14300
C2647       C  0.57957780  0.95396294  0.90975702    -0.23400
H2648       H  0.55164627  0.92501362  0.91020527     0.15600
H2649       H  0.54826999  0.96464176  0.84745343     0.15600
C2650       C  0.51964451  0.93603749  0.84816122    -0.23300
H2651       H  0.57683701  0.94482622  0.92341079     0.05900
H2652       H  0.57841026  0.97003119  0.91403786     0.09100
H2653       H  0.59508127  0.95063082  0.90462637     0.09100
H2654       H  0.50432161  0.93677153  0.85473220     0.09100
H2655       H  0.52219592  0.92101839  0.84144240     0.09100
H2656       H  0.52041794  0.94722204  0.83584049     0.05800
C2657       C  0.54997518  0.81448716  0.90124956    -0.20000
C2658       C  0.55359296  0.83504784  0.89852851    -0.06500
C2659       C  0.57312541  0.84157388  0.89312229     0.14300
C2660       C  0.58794023  0.82726330  0.88861433    -0.20000
C2661       C  0.58354365  0.80664776  0.88887717    -0.06500
C2662       C  0.56461809  0.80015436  0.89623880     0.14300
C2663       C  0.55959559  0.77818761  0.89855320    -0.23400
H2664       H  0.53511582  0.80953410  0.90579978     0.15600
H2665       H  0.60254318  0.83226674  0.88336484     0.15600
C2666       C  0.57837949  0.86358133  0.89182953    -0.23300
H2667       H  0.54482215  0.77596985  0.90601272     0.05900
H2668       H  0.57125662  0.77074395  0.90786439     0.09100
H2669       H  0.55871607  0.77079108  0.88369141     0.09100
H2670       H  0.57472851  0.87108165  0.90623237     0.09100
H2671       H  0.56993729  0.87086457  0.87947789     0.09100
H2672       H  0.59465509  0.86590176  0.88883730     0.05800
C2673       C  0.57616636  0.68186080  0.86292753    -0.20000
C2674       C  0.55564697  0.68625297  0.86095181    -0.06500
C2675       C  0.54975623  0.70488393  0.85272712     0.14300
C2676       C  0.56452373  0.71913685  0.84771622    -0.20000
C2677       C  0.58495354  0.71557131  0.85164183    -0.06500
C2678       C  0.59092147  0.69645942  0.85881452     0.14300
C2679       C  0.61272072  0.69149590  0.86259197    -0.23400
H2680       H  0.58058998  0.66754450  0.86928266     0.15600
H2681       H  0.55994965  0.73372788  0.84216186     0.15600
C2682       C  0.52786681  0.70996962  0.84974789    -0.23300
H2683       H  0.61468513  0.67555382  0.86707790     0.05900
H2684       H  0.61879102  0.70093565  0.87489576     0.09100
H2685       H  0.62159935  0.69409087  0.84875193     0.09100
H2686       H  0.51995216  0.71017724  0.86437036     0.09100
H2687       H  0.52072232  0.69861904  0.83983336     0.09100
H2688       H  0.52594291  0.72496639  0.84272431     0.05800
C2689       C  0.46876964  0.82005705  0.84776031    -0.20000
C2690       C  0.46180295  0.83829180  0.85566598    -0.06500
C2691       C  0.44083218  0.84173455  0.85673075     0.14300
C2692       C  0.42745446  0.82624725  0.85133914    -0.20000
C2693       C  0.43447553  0.80750728  0.84470456    -0.06500
C2694       C  0.45541001  0.80462134  0.84227945     0.14300
C2695       C  0.46387078  0.78477279  0.83553224    -0.23400
H2696       H  0.48484652  0.81741811  0.84702920     0.15600
H2697       H  0.41140543  0.82843185  0.85323618     0.15600
C2698       C  0.43246551  0.86107786  0.86493634    -0.23300
H2699       H  0.48058053  0.78497479  0.83511730     0.05900
H2700       H  0.45839950  0.78124659  0.82021094     0.09100
H2701       H  0.45914031  0.77271307  0.84602401     0.09100
H2702       H  0.43743658  0.87383899  0.85544058     0.09100
H2703       H  0.43778220  0.86340702  0.88055350     0.09100
H2704       H  0.41575327  0.86100816  0.86512255     0.05800
C2705       C  0.44922806  0.72258883  0.89115641    -0.20000
C2706       C  0.43156722  0.71528692  0.88210185    -0.06500
C2707       C  0.42896921  0.69433468  0.87977534     0.14300
C2708       C  0.44465608  0.68136810  0.88532374    -0.20000
C2709       C  0.46271359  0.68877532  0.89335715    -0.06500
C2710       C  0.46479550  0.70956440  0.89694908     0.14300
C2711       C  0.48390271  0.71816659  0.90560867    -0.23400
H2712       H  0.45124711  0.73866228  0.89280765     0.15600
H2713       H  0.44319689  0.66538584  0.88255002     0.15600
C2714       C  0.41038321  0.68565050  0.87009602    -0.23300
H2715       H  0.48315559  0.73477081  0.90698627     0.05900
H2716       H  0.49683507  0.71439946  0.89580228     0.09100
H2717       H  0.48651392  0.71185017  0.92078065     0.09100
H2718       H  0.40865311  0.69170701  0.85468365     0.09100
H2719       H  0.39693384  0.68954412  0.87912403     0.09100
H2720       H  0.41113265  0.66902350  0.86902790     0.05800
C2721       C  0.31565805  0.81543203  0.85321830    -0.20000
C2722       C  0.30668526  0.81334516  0.87213956    -0.06500
C2723       C  0.31361780  0.79796291  0.88506513     0.14300
C2724       C  0.32997455  0.78593911  0.87908633    -0.20000
C2725       C  0.33938617  0.78850214  0.86036121    -0.06500
C2726       C  0.33167827  0.80325345  0.84705968     0.14300
C2727       C  0.34036482  0.80683732  0.82647762    -0.23400
H2728       H  0.31018944  0.82693407  0.84310548     0.15600
H2729       H  0.33556589  0.77453951  0.88924709     0.15600
C2730       C  0.30430345  0.79438197  0.90532618    -0.23300
H2731       H  0.33252962  0.81916500  0.81843730     0.05900
H2732       H  0.33871772  0.79309297  0.81720515     0.09100
H2733       H  0.35646972  0.81112282  0.82771577     0.09100
H2734       H  0.28822533  0.79019545  0.90351076     0.09100
H2735       H  0.30556659  0.80813892  0.91463194     0.09100
H2736       H  0.31185667  0.78196752  0.91350158     0.05800
C2737       C  0.21521617  0.85692021  0.94739254    -0.20000
C2738       C  0.21064750  0.85806993  0.92691919    -0.06500
C2739       C  0.19084962  0.86300675  0.92089098     0.14300
C2740       C  0.17659003  0.86836563  0.93548699    -0.20000
C2741       C  0.18188689  0.86940814  0.95581711    -0.06500
C2742       C  0.20117144  0.86280122  0.96192950     0.14300
C2743       C  0.20716568  0.86229538  0.98372226    -0.23400
H2744       H  0.23034113  0.85290142  0.95197651     0.15600
H2745       H  0.16175846  0.87327396  0.93085129     0.15600
C2746       C  0.18478870  0.86287298  0.89911230    -0.23300
H2747       H  0.22240137  0.85579354  0.98582792     0.05900
H2748       H  0.19629327  0.85297747  0.99227030     0.09100
H2749       H  0.20745648  0.87766701  0.99000275     0.09100
H2750       H  0.18775645  0.84783590  0.89258408     0.09100
H2751       H  0.19335348  0.87438965  0.89065985     0.09100
H2752       H  0.16852633  0.86619058  0.89719176     0.05800
C2753       C  0.18144609  0.90155318  0.06139542    -0.20000
C2754       C  0.18806982  0.90799829  0.04249157    -0.06500
C2755       C  0.20896842  0.90956706  0.03878610     0.14300
C2756       C  0.22259207  0.90257090  0.05331747    -0.20000
C2757       C  0.21585534  0.89493682  0.07174557    -0.06500
C2758       C  0.19507908  0.89533774  0.07620883     0.14300
C2759       C  0.18705863  0.88802233  0.09603563    -0.23400
H2760       H  0.16542430  0.90060742  0.06429199     0.15600
H2761       H  0.23856973  0.90245355  0.05004387     0.15600
C2762       C  0.21697898  0.91765700  0.01927462    -0.23300
H2763       H  0.17039013  0.88898816  0.09674403     0.05900
H2764       H  0.19326238  0.89740365  0.10834061     0.09100
H2765       H  0.19136665  0.87210593  0.09843167     0.09100
H2766       H  0.21209633  0.93346780  0.01736211     0.09100
H2767       H  0.21127207  0.90857165  0.00656589     0.09100
H2768       H  0.23368668  0.91737893  0.01881298     0.05800
C2769       C  0.43107486  0.91061701  0.95380605    -0.20000
C2770       C  0.42452811  0.89569577  0.96718448    -0.06500
C2771       C  0.43423674  0.87674110  0.96688299     0.14300
C2772       C  0.45015798  0.87343893  0.95336456    -0.20000
C2773       C  0.45627348  0.88824806  0.93962949    -0.06500
C2774       C  0.44643514  0.90712550  0.93987889     0.14300
C2775       C  0.45181991  0.92385628  0.92558238    -0.23400
H2776       H  0.42369434  0.92510347  0.95378087     0.15600
H2777       H  0.45748220  0.85891952  0.95311601     0.15600
C2778       C  0.42795406  0.85980757  0.98051298    -0.23300
H2779       H  0.44324592  0.93779442  0.92873320     0.05900
H2780       H  0.44815963  0.91935084  0.90997620     0.09100
H2781       H  0.46806891  0.92752332  0.92690583     0.09100
H2782       H  0.41223260  0.85525902  0.97711212     0.09100
H2783       H  0.42920285  0.86460342  0.99639995     0.09100
H2784       H  0.43757011  0.84634078  0.97852802     0.05800
C2785       C  0.33495463  0.90739306  0.93332266    -0.20000
C2786       C  0.32839337  0.91139126  0.95291115    -0.06500
C2787       C  0.30760463  0.91084921  0.95723505     0.14300
C2788       C  0.29406751  0.90470396  0.94227959    -0.20000
C2789       C  0.30078334  0.89920641  0.92311155    -0.06500
C2790       C  0.32134742  0.90157294  0.91824589     0.14300
C2791       C  0.32922807  0.89663727  0.89766643    -0.23400
H2792       H  0.35093162  0.90788992  0.93007630     0.15600
H2793       H  0.27825831  0.90297891  0.94593058     0.15600
C2794       C  0.29979294  0.91510879  0.97799527    -0.23300
H2795       H  0.34573896  0.89902953  0.89661978     0.05900
H2796       H  0.32189657  0.90646658  0.88638498     0.09100
H2797       H  0.32606186  0.88067492  0.89402630     0.09100
H2798       H  0.30371620  0.93070787  0.98237272     0.09100
H2799       H  0.30652453  0.90443485  0.98887559     0.09100
H2800       H  0.28316963  0.91353025  0.97881730     0.05800
C2801       C  0.32479275  0.86794143  0.07674244    -0.20000
C2802       C  0.30734242  0.85842693  0.06944590    -0.06500
C2803       C  0.30567226  0.85445284  0.04866810     0.14300
C2804       C  0.32061587  0.86168461  0.03564620    -0.20000
C2805       C  0.33719227  0.87256091  0.04287265    -0.06500
C2806       C  0.33970954  0.87512878  0.06371399     0.14300
C2807       C  0.35720462  0.88686224  0.07215483    -0.23400
H2808       H  0.32617088  0.87088326  0.09266445     0.15600
H2809       H  0.31880981  0.85981694  0.01959536     0.15600
C2810       C  0.28758123  0.84396620  0.03990615    -0.23300
H2811       H  0.35651577  0.88789693  0.08875800     0.05900
H2812       H  0.35714333  0.90237397  0.06604253     0.09100
H2813       H  0.37154000  0.87939571  0.06809275     0.09100
H2814       H  0.27373970  0.85263177  0.04326305     0.09100
H2815       H  0.28629295  0.82863958  0.04631387     0.09100
H2816       H  0.28872762  0.84245765  0.02336396     0.05800
C2817       C  0.14358163  0.96731252  0.94213173    -0.20000
C2818       C  0.12934935  0.95273551  0.94774302    -0.06500
C2819       C  0.11079968  0.95186747  0.93728178     0.14300
C2820       C  0.10734159  0.96502773  0.92122069    -0.20000
C2821       C  0.12187198  0.97906400  0.91495300    -0.06500
C2822       C  0.14020584  0.98036739  0.92583638     0.14300
C2823       C  0.15632623  0.99538926  0.92054187    -0.23400
H2824       H  0.15774861  0.96809862  0.95018176     0.15600
H2825       H  0.09320237  0.96395995  0.91318794     0.15600
C2826       C  0.09430141  0.93737620  0.94304679    -0.23300
H2827       H  0.16920305  0.99477044  0.93115622     0.05900
H2828       H  0.15005248  0.01081422  0.92107656     0.09100
H2829       H  0.16228538  0.99220542  0.90534608     0.09100
H2830       H  0.09051452  0.93926242  0.95914091     0.09100
H2831       H  0.09912505  0.92171311  0.94014573     0.09100
H2832       H  0.08034221  0.93991918  0.93423964     0.05800
C2833       C  0.04348035  0.07950212  0.89532895    -0.20000
C2834       C  0.03322325  0.08850332  0.87918832    -0.06500
C2835       C  0.03532624  0.07983845  0.85984090     0.14300
C2836       C  0.04808684  0.06312270  0.85721590    -0.20000
C2837       C  0.05922370  0.05507959  0.87321591    -0.06500
C2838       C  0.05647655  0.06314103  0.89262256     0.14300
C2839       C  0.06700342  0.05447833  0.91070315    -0.23400
H2840       H  0.04178000  0.08563121  0.91026201     0.15600
H2841       H  0.05013344  0.05689180  0.84234551     0.15600
C2842       C  0.02478351  0.08832849  0.84173874    -0.23300
H2843       H  0.06194750  0.06168767  0.92483097     0.05900
H2844       H  0.08347702  0.05689657  0.90957200     0.09100
H2845       H  0.06372473  0.03816439  0.91183702     0.09100
H2846       H  0.02978000  0.10402911  0.83915304     0.09100
H2847       H  0.00825104  0.08787372  0.84402838     0.09100
H2848       H  0.02818144  0.07962200  0.82795449     0.05800
C2849       C  0.16099458  0.83316631  0.70895032    -0.20000
C2850       C  0.14546680  0.83983460  0.72157243    -0.06500
C2851       C  0.12674189  0.82951622  0.72106652     0.14300
C2852       C  0.12391204  0.81363758  0.70735131    -0.20000
C2853       C  0.13908670  0.80796523  0.69386113    -0.06500
C2854       C  0.15809598  0.81756341  0.69512851     0.14300
C2855       C  0.17562091  0.81141485  0.68216088    -0.23400
H2856       H  0.17548277  0.84064476  0.70938441     0.15600
H2857       H  0.10943793  0.80614153  0.70660167     0.15600
C2858       C  0.10956210  0.83510689  0.73467089    -0.23300
H2859       H  0.18967582  0.81943523  0.68638464     0.05900
H2860       H  0.17251452  0.81505031  0.66623665     0.09100
H2861       H  0.17841629  0.79507191  0.68383602     0.09100
H2862       H  0.10435435  0.85054583  0.73123114     0.09100
H2863       H  0.11446492  0.83415361  0.75055740     0.09100
H2864       H  0.09647175  0.82488562  0.73273863     0.05800
C2865       C  0.20105358  0.86348627  0.80984618    -0.20000
C2866       C  0.20375193  0.88160900  0.79942557    -0.06500
C2867       C  0.21959430  0.89459592  0.80537240     0.14300
C2868       C  0.23193241  0.88920363  0.82168955    -0.20000
C2869       C  0.22887614  0.87126104  0.83241643    -0.06500
C2870       C  0.21320052  0.85814408  0.82619282     0.14300
C2871       C  0.20849472  0.83873931  0.83691736    -0.23400
H2872       H  0.18902615  0.85343261  0.80534752     0.15600
H2873       H  0.24385858  0.89931911  0.82632298     0.15600
C2874       C  0.22320404  0.91447732  0.79520923    -0.23300
H2875       H  0.19542835  0.83079755  0.83016633     0.05900
H2876       H  0.20469417  0.84183512  0.85282229     0.09100
H2877       H  0.22157189  0.82844433  0.83601651     0.09100
H2878       H  0.20950581  0.92392731  0.79629681     0.09100
H2879       H  0.22711099  0.91203198  0.77923395     0.09100
H2880       H  0.23582376  0.92289413  0.80223667     0.05800
C2881       C  0.11745317  0.92650198  0.81172576    -0.20000
C2882       C  0.11851130  0.93190691  0.79144776    -0.06500
C2883       C  0.11121962  0.95086105  0.78530282     0.14300
C2884       C  0.10484119  0.96467345  0.79984909    -0.20000
C2885       C  0.10612768  0.96012467  0.82032629    -0.06500
C2886       C  0.11161625  0.94051936  0.82632394     0.14300
C2887       C  0.11169368  0.93446536  0.84808733    -0.23400
H2888       H  0.12278251  0.91183584  0.81634090     0.15600
H2889       H  0.10036551  0.97963826  0.79528828     0.15600
C2890       C  0.11048688  0.95669464  0.76347732    -0.23300
H2891       H  0.11553630  0.91835159  0.84998700     0.05900
H2892       H  0.09654170  0.93694771  0.85461026     0.09100
H2893       H  0.12296376  0.94338672  0.85654567     0.09100
H2894       H  0.10138379  0.94554296  0.75502307     0.09100
H2895       H  0.12587719  0.95734522  0.75711232     0.09100
H2896       H  0.10353015  0.97169179  0.76133673     0.05800
C2897       C  0.06996453  0.95052671  0.59792133    -0.20000
C2898       C  0.06759171  0.96066756  0.61621907    -0.06500
C2899       C  0.05147818  0.95496925  0.62889869     0.14300
C2900       C  0.03930890  0.93839694  0.62366212    -0.20000
C2901       C  0.04227010  0.92763751  0.60574486    -0.06500
C2902       C  0.05746738  0.93439981  0.59234873     0.14300
C2903       C  0.06105562  0.92470429  0.57223081    -0.23400
H2904       H  0.08194638  0.95513024  0.58790628     0.15600
H2905       H  0.02749348  0.93370743  0.63379927     0.15600
C2906       C  0.04723612  0.96587660  0.64820527    -0.23300
H2907       H  0.07336250  0.93220496  0.56381087     0.05900
H2908       H  0.04724221  0.92575813  0.56290282     0.09100
H2909       H  0.06541934  0.90875734  0.57425737     0.09100
H2910       H  0.04355763  0.98180704  0.64496550     0.09100
H2911       H  0.06054613  0.96509250  0.65823796     0.09100
H2912       H  0.03424037  0.95925214  0.65631901     0.05800
C2913       C  0.14670379  0.94172388  0.66758539    -0.20000
C2914       C  0.15086922  0.96210464  0.67083399    -0.06500
C2915       C  0.16141824  0.96786878  0.68836842     0.14300
C2916       C  0.16620623  0.95327749  0.70285538    -0.20000
C2917       C  0.15989021  0.93327239  0.70063962    -0.06500
C2918       C  0.15070345  0.92727500  0.68240204     0.14300
C2919       C  0.14463292  0.90577479  0.67856089    -0.23400
H2920       H  0.13874875  0.93730788  0.65408874     0.15600
H2921       H  0.17351909  0.95783827  0.71666131     0.15600
C2922       C  0.16732721  0.98941652  0.69204406    -0.23300
H2923       H  0.13915997  0.90359425  0.66297507     0.05900
H2924       H  0.13221677  0.90128962  0.68872026     0.09100
H2925       H  0.15774790  0.89573942  0.68087599     0.09100
H2926       H  0.15373635  0.99888219  0.69380049     0.09100
H2927       H  0.17642371  0.99503790  0.67926904     0.09100
H2928       H  0.17646122  0.99104323  0.70590816     0.05800
C2929       C  0.15529914  0.18837652  0.78495936    -0.20000
C2930       C  0.13965191  0.17970828  0.77364686    -0.06500
C2931       C  0.12031399  0.18875879  0.77436369     0.14300
C2932       C  0.11717202  0.20559415  0.78681436    -0.20000
C2933       C  0.13260495  0.21329035  0.79901240    -0.06500
C2934       C  0.15203682  0.20477207  0.79770923     0.14300
C2935       C  0.16958193  0.21291115  0.80961440    -0.23400
H2936       H  0.17021765  0.18188690  0.78438544     0.15600
H2937       H  0.10230588  0.21218796  0.78776236     0.15600
C2938       C  0.10276622  0.18066964  0.76251489    -0.23300
H2939       H  0.18393407  0.20548070  0.80549144     0.05900
H2940       H  0.16721805  0.21025621  0.82585358     0.09100
H2941       H  0.17132600  0.22924126  0.80673636     0.09100
H2942       H  0.09918788  0.16516187  0.76747657     0.09100
H2943       H  0.10642658  0.18074527  0.74628805     0.09100
H2944       H  0.08901329  0.18987003  0.76464516     0.05800
C2945       C  0.15657632  0.06281085  0.79010221    -0.20000
C2946       C  0.15412033  0.08313811  0.79498092    -0.06500
C2947       C  0.14746965  0.08834205  0.81444038     0.14300
C2948       C  0.14253255  0.07304312  0.82813318    -0.20000
C2949       C  0.14301066  0.05273545  0.82250551    -0.06500
C2950       C  0.15062223  0.04754033  0.80337595     0.14300
C2951       C  0.15215085  0.02598813  0.79663182    -0.23400
H2952       H  0.16171058  0.05883923  0.77520818     0.15600
H2953       H  0.13677439  0.07704022  0.84278837     0.15600
C2954       C  0.14520179  0.10994410  0.82075561    -0.23300
H2955       H  0.15961220  0.02471405  0.78179649     0.05900
H2956       H  0.13694123  0.01926183  0.79512426     0.09100
H2957       H  0.16111488  0.01725778  0.80762836     0.09100
H2958       H  0.13328167  0.11734189  0.81177006     0.09100
H2959       H  0.15967340  0.11801761  0.81864909     0.09100
H2960       H  0.14087615  0.11123178  0.83678234     0.05800
C2961       C  0.11707670  0.07238568  0.66818657    -0.20000
C2962       C  0.11137319  0.05331695  0.67514045    -0.06500
C2963       C  0.10895889  0.05021696  0.69595509     0.14300
C2964       C  0.11370767  0.06587397  0.70930243    -0.20000
C2965       C  0.12071952  0.08455800  0.70238588    -0.06500
C2966       C  0.12170385  0.08807632  0.68150241     0.14300
C2967       C  0.12908143  0.10777254  0.67313438    -0.23400
H2968       H  0.11890798  0.07470685  0.65220275     0.15600
H2969       H  0.11298051  0.06316918  0.72531615     0.15600
C2970       C  0.10288114  0.03005494  0.70424174    -0.23300
H2971       H  0.12938140  0.10768108  0.65648529     0.05900
H2972       H  0.14460209  0.11085164  0.67852055     0.09100
H2973       H  0.11893820  0.12006602  0.67795366     0.09100
H2974       H  0.11392266  0.01846707  0.69960750     0.09100
H2975       H  0.08772122  0.02592154  0.69857394     0.09100
H2976       H  0.10225738  0.03016348  0.72088237     0.05800
C2977       C  0.58286630  0.61169980  0.95732735    -0.20000
C2978       C  0.58801937  0.62629478  0.97169667    -0.06500
C2979       C  0.57624594  0.64403022  0.97269188     0.14300
C2980       C  0.56049216  0.64695452  0.95878314    -0.20000
C2981       C  0.55634441  0.63290441  0.94358051    -0.06500
C2982       C  0.56746529  0.61476369  0.94324038     0.14300
C2983       C  0.56335354  0.59838304  0.92813812    -0.23400
H2984       H  0.59146335  0.59792376  0.95655702     0.15600
H2985       H  0.55188682  0.66074404  0.95929435     0.15600
C2986       C  0.58020397  0.66011553  0.98808134    -0.23300
H2987       H  0.57245628  0.58474041  0.93113350     0.05900
H2988       H  0.56730058  0.60360482  0.91284836     0.09100
H2989       H  0.54724627  0.59396016  0.92871728     0.09100
H2990       H  0.59534673  0.66674853  0.98570872     0.09100
H2991       H  0.57918566  0.65362732  0.00337567     0.09100
H2992       H  0.56909362  0.67250856  0.98705769     0.05800
C2993       C  0.63892557  0.53802455  0.06887333    -0.20000
C2994       C  0.62158844  0.54119205  0.08055353    -0.06500
C2995       C  0.60821296  0.55681223  0.07493556     0.14300
C2996       C  0.61305285  0.56925653  0.05868515    -0.20000
C2997       C  0.63071376  0.56664944  0.04749220    -0.06500
C2998       C  0.64357076  0.55040074  0.05232731     0.14300
C2999       C  0.66252544  0.54640863  0.04065670    -0.23400
H3000       H  0.64909002  0.52596582  0.07288860     0.15600
H3001       H  0.60299464  0.58146439  0.05487214     0.15600
C3002       C  0.58907179  0.56117923  0.08627308    -0.23300
H3003       H  0.67095604  0.53338725  0.04676576     0.05900
H3004       H  0.67256210  0.55973862  0.04130065     0.09100
H3005       H  0.65869852  0.54298305  0.02481924     0.09100
H3006       H  0.59260091  0.56468004  0.10216682     0.09100
H3007       H  0.57875690  0.54807471  0.08536515     0.09100
H3008       H  0.58089005  0.57427195  0.07999476     0.05800
C3009       C  0.79872979  0.62515459  0.80282435    -0.20000
C3010       C  0.80754082  0.64149299  0.79290839    -0.06500
C3011       C  0.80255407  0.66119573  0.79896605     0.14300
C3012       C  0.78972021  0.66398190  0.81546470    -0.20000
C3013       C  0.78188694  0.64760227  0.82632393    -0.06500
C3014       C  0.78618707  0.62787153  0.81956009     0.14300
C3015       C  0.77853453  0.60949428  0.83032163    -0.23400
H3016       H  0.80257996  0.61007238  0.79809459     0.15600
H3017       H  0.78622650  0.67913454  0.82022196     0.15600
C3018       C  0.81050945  0.67932280  0.78796636    -0.23300
H3019       H  0.78378889  0.59541447  0.82313172     0.05900
H3020       H  0.76183690  0.60928490  0.83009794     0.09100
H3021       H  0.78408351  0.60946047  0.84602932     0.09100
H3022       H  0.80638922  0.67832355  0.77186108     0.09100
H3023       H  0.82710681  0.68020968  0.78946057     0.09100
H3024       H  0.80416059  0.69350011  0.79400513     0.05800
C3025       C  0.70337125  0.72044370  0.88833102    -0.20000
C3026       C  0.71199048  0.71030980  0.87202849    -0.06500
C3027       C  0.70524711  0.71486363  0.85242495     0.14300
C3028       C  0.68922446  0.72829250  0.84979998    -0.20000
C3029       C  0.67957688  0.73747961  0.86615658    -0.06500
C3030       C  0.68726330  0.73392921  0.88571497     0.14300
C3031       C  0.67843603  0.74379352  0.90400837    -0.23400
H3032       H  0.70869858  0.71713267  0.90333396     0.15600
H3033       H  0.68389823  0.73123263  0.83473472     0.15600
C3034       C  0.71501305  0.70592255  0.83407712    -0.23300
H3035       H  0.68654715  0.73943556  0.91790667     0.05900
H3036       H  0.66247023  0.73922472  0.90580657     0.09100
H3037       H  0.67953101  0.76036472  0.90255439     0.09100
H3038       H  0.71216547  0.68952932  0.83339010     0.09100
H3039       H  0.73146968  0.70885159  0.83443944     0.09100
H3040       H  0.70896438  0.71253695  0.82003181     0.05800
C3041       C  0.67565514  0.62244274  0.93288677    -0.20000
C3042       C  0.68300922  0.61518696  0.95129891    -0.06500
C3043       C  0.70392488  0.61202574  0.95355088     0.14300
C3044       C  0.71700402  0.61756255  0.93798751    -0.20000
C3045       C  0.70979801  0.62604436  0.92013948    -0.06500
C3046       C  0.68880096  0.62776141  0.91719008     0.14300
C3047       C  0.68031619  0.63646596  0.89813117    -0.23400
H3048       H  0.65960619  0.62478445  0.93111047     0.15600
H3049       H  0.73312197  0.61627456  0.94018365     0.15600
C3050       C  0.71274639  0.60432769  0.97289033    -0.23300
H3051       H  0.66361658  0.63709301  0.89847682     0.05900
H3052       H  0.68481191  0.62701885  0.88519013     0.09100
H3053       H  0.68607633  0.65197009  0.89593038     0.09100
H3054       H  0.70696284  0.58899918  0.97598669     0.09100
H3055       H  0.70865034  0.61450222  0.98541287     0.09100
H3056       H  0.72942415  0.60348643  0.97225911     0.05800
C3057       C  0.90619676  0.56259154  0.94104971    -0.20000
C3058       C  0.88651708  0.56430526  0.94844123    -0.06500
C3059       C  0.87107882  0.55282031  0.93923766     0.14300
C3060       C  0.87564215  0.54068582  0.92251301    -0.20000
C3061       C  0.89523920  0.53960073  0.91456563    -0.06500
C3062       C  0.91083842  0.55038872  0.92448657     0.14300
C3063       C  0.93251396  0.54938994  0.91788192    -0.23400
H3064       H  0.91808995  0.57121159  0.94812865     0.15600
H3065       H  0.86361438  0.53240637  0.91525592     0.15600
C3066       C  0.84958406  0.55392178  0.94630812    -0.23300
H3067       H  0.94260600  0.55804129  0.92798912     0.05900
H3068       H  0.93414609  0.55588237  0.90265331     0.09100
H3069       H  0.93771837  0.53355908  0.91801157     0.09100
H3070       H  0.84410710  0.56963088  0.94533726     0.09100
H3071       H  0.84855981  0.54855545  0.96202314     0.09100
H3072       H  0.83943409  0.54440224  0.93707274     0.05800
C3073       C  0.83877286  0.63516303  0.92536924    -0.20000
C3074       C  0.84066620  0.64512681  0.94376434    -0.06500
C3075       C  0.82788162  0.66147601  0.94802966     0.14300
C3076       C  0.81219637  0.66616266  0.93459166    -0.20000
C3077       C  0.80898889  0.65473315  0.91714048    -0.06500
C3078       C  0.82324420  0.63981338  0.91191758     0.14300
C3079       C  0.82223048  0.62857679  0.89229997    -0.23400
H3080       H  0.84888445  0.62285423  0.92200816     0.15600
H3081       H  0.80162234  0.67790273  0.93841358     0.15600
C3082       C  0.82985207  0.67303046  0.96733150    -0.23300
H3083       H  0.83563445  0.61888922  0.89008219     0.05900
H3084       H  0.82164199  0.63940327  0.87965583     0.09100
H3085       H  0.80882872  0.61864996  0.89188934     0.09100
H3086       H  0.84499520  0.68005856  0.96817654     0.09100
H3087       H  0.82778770  0.66277887  0.98029424     0.09100
H3088       H  0.81844788  0.68514022  0.96843485     0.05800
C3089       C  0.73512529  0.63201815  0.17647280    -0.20000
C3090       C  0.73517790  0.65155789  0.16838143    -0.06500
C3091       C  0.72333762  0.66652318  0.17793844     0.14300
C3092       C  0.71079707  0.66115694  0.19397803    -0.20000
C3093       C  0.70981898  0.64142711  0.20120184    -0.06500
C3094       C  0.72274727  0.62681205  0.19284403     0.14300
C3095       C  0.72287805  0.60552180  0.20044150    -0.23400
H3096       H  0.74439332  0.62056006  0.16959948     0.15600
H3097       H  0.70120899  0.67245618  0.20068115     0.15600
C3098       C  0.72308642  0.68814392  0.17115201    -0.23300
H3099       H  0.73349936  0.59596315  0.19188067     0.05900
H3100       H  0.70761066  0.59886603  0.19901257     0.09100
H3101       H  0.72763358  0.60529443  0.21639840     0.09100
H3102       H  0.71733203  0.68916049  0.15555808     0.09100
H3103       H  0.73847735  0.69460271  0.17214407     0.09100
H3104       H  0.71315238  0.69756994  0.18062956     0.05800
C3105       C  0.71414552  0.66763765  0.05231840    -0.20000
C3106       C  0.70999936  0.66570588  0.07285472    -0.06500
C3107       C  0.69069114  0.65897834  0.07885273     0.14300
C3108       C  0.67671621  0.65273828  0.06420816    -0.20000
C3109       C  0.68177695  0.65253498  0.04378823    -0.06500
C3110       C  0.70041882  0.66083769  0.03772945     0.14300
C3111       C  0.70603535  0.66225675  0.01589876    -0.23400
H3112       H  0.72882989  0.67300425  0.04767190     0.15600
H3113       H  0.66230949  0.64664958  0.06884051     0.15600
C3114       C  0.68482302  0.65814982  0.10065431    -0.23300
H3115       H  0.72068988  0.67002177  0.01378860     0.05900
H3116       H  0.69435564  0.67085484  0.00766577     0.09100
H3117       H  0.70737741  0.64704287  0.00929844     0.09100
H3118       H  0.68686393  0.67318682  0.10756112     0.09100
H3119       H  0.69415215  0.64701477  0.10877421     0.09100
H3120       H  0.66882864  0.65367522  0.10255329     0.05800
C3121       C  0.81718784  0.62196041  0.07257452    -0.20000
C3122       C  0.79911648  0.63125517  0.06672767    -0.06500
C3123       C  0.79450029  0.63253992  0.04596455     0.14300
C3124       C  0.80865499  0.62598545  0.03183749    -0.20000
C3125       C  0.82729780  0.61807588  0.03765750    -0.06500
C3126       C  0.83138637  0.61546011  0.05830189     0.14300
C3127       C  0.85116928  0.60704992  0.06538322    -0.23400
H3128       H  0.82076101  0.62079897  0.08838224     0.15600
H3129       H  0.80542939  0.62771854  0.01599797     0.15600
C3130       C  0.77483399  0.64094521  0.03832697    -0.23300
H3131       H  0.85211961  0.60663178  0.08200078     0.05900
H3132       H  0.86374020  0.61650487  0.05977048     0.09100
H3133       H  0.85296107  0.59147506  0.05977119     0.09100
H3134       H  0.77399634  0.65730508  0.04130737     0.09100
H3135       H  0.76202320  0.63310406  0.04561296     0.09100
H3136       H  0.77320234  0.63893990  0.02187670     0.05800
C3137       C  0.20507502  0.22228945  0.38269459    -0.20000
C3138       C  0.20859622  0.20673400  0.36891967    -0.06500
C3139       C  0.19645203  0.20549978  0.35151235     0.14300
C3140       C  0.18087661  0.21936490  0.34872318    -0.20000
C3141       C  0.17662313  0.23437433  0.36291561    -0.06500
C3142       C  0.18914923  0.23597765  0.38009578     0.14300
C3143       C  0.18581880  0.25173101  0.39595228    -0.23400
H3144       H  0.21442589  0.22331965  0.39598124     0.15600
H3145       H  0.17162619  0.21809028  0.33539508     0.15600
C3146       C  0.19981783  0.18980362  0.33556068    -0.23300
H3147       H  0.19721797  0.25081765  0.40810831     0.05900
H3148       H  0.17079983  0.24962907  0.40291646     0.09100
H3149       H  0.18690690  0.26692403  0.38919662     0.09100
H3150       H  0.19648911  0.17464318  0.34160257     0.09100
H3151       H  0.21561628  0.19050298  0.33021418     0.09100
H3152       H  0.18983949  0.19207803  0.32238446     0.05800
C3153       C  0.06373266  0.14545814  0.45847583    -0.20000
C3154       C  0.05872037  0.13125498  0.44373785    -0.06500
C3155       C  0.07013421  0.11334869  0.44249666     0.14300
C3156       C  0.08657058  0.11058772  0.45546050    -0.20000
C3157       C  0.09227238  0.12524600  0.46956764    -0.06500
C3158       C  0.08039250  0.14284581  0.47124839     0.14300
C3159       C  0.08502837  0.15906628  0.48631513    -0.23400
H3160       H  0.05497058  0.15911912  0.45953901     0.15600
H3161       H  0.09535757  0.09696535  0.45416235     0.15600
C3162       C  0.06507257  0.09687850  0.42778555    -0.23300
H3163       H  0.07367724  0.17128039  0.48594873     0.05900
H3164       H  0.09987484  0.16594303  0.48297824     0.09100
H3165       H  0.08505549  0.15264367  0.50166793     0.09100
H3166       H  0.06753200  0.10216319  0.41221545     0.09100
H3167       H  0.04916519  0.09214383  0.42974047     0.09100
H3168       H  0.07469305  0.08343674  0.42999728     0.05800
C3169       C  0.15086369  0.05362768  0.55357977    -0.20000
C3170       C  0.13549864  0.06695100  0.54788287    -0.06500
C3171       C  0.11698212  0.06631132  0.55840283     0.14300
C3172       C  0.11443553  0.05253666  0.57411426    -0.20000
C3173       C  0.12991805  0.03953918  0.58026083    -0.06500
C3174       C  0.14849141  0.04021045  0.56979218     0.14300
C3175       C  0.16597308  0.02706701  0.57556951    -0.23400
H3176       H  0.16511172  0.05417568  0.54571276     0.15600
H3177       H  0.10020518  0.05230905  0.58199591     0.15600
C3178       C  0.09959804  0.07992815  0.55323469    -0.23300
H3179       H  0.17908305  0.02933992  0.56550149     0.05900
H3180       H  0.16150472  0.01103074  0.57463826     0.09100
H3181       H  0.17094026  0.03070897  0.59104267     0.09100
H3182       H  0.09562327  0.07824850  0.53715503     0.09100
H3183       H  0.10360964  0.09577115  0.55652586     0.09100
H3184       H  0.08595329  0.07635356  0.56215505     0.05800
C3185       C  0.20997619  0.11244814  0.45718170    -0.20000
C3186       C  0.18935284  0.11240643  0.45269851    -0.06500
C3187       C  0.18301624  0.11645303  0.43287055     0.14300
C3188       C  0.19732742  0.12186167  0.41836509    -0.20000
C3189       C  0.21768568  0.12417439  0.42342200    -0.06500
C3190       C  0.22423804  0.11866336  0.44289154     0.14300
C3191       C  0.24613355  0.11965705  0.44882663    -0.23400
H3192       H  0.21479928  0.10916424  0.47237082     0.15600
H3193       H  0.19234024  0.12587369  0.40342091     0.15600
C3194       C  0.16110854  0.11551931  0.42704671    -0.23300
H3195       H  0.24864162  0.11352065  0.46410804     0.05900
H3196       H  0.25149318  0.13543645  0.44888838     0.09100
H3197       H  0.25528045  0.11072046  0.43816854     0.09100
H3198       H  0.15245317  0.12717848  0.43516100     0.09100
H3199       H  0.15491613  0.10046747  0.43070290     0.09100
H3200       H  0.15894693  0.11814497  0.41074724     0.05800
C3201       C  0.21809740  0.12362249  0.69643728    -0.20000
C3202       C  0.20380412  0.13814967  0.70187051    -0.06500
C3203       C  0.20411692  0.15696821  0.69201791     0.14300
C3204       C  0.21754540  0.16017454  0.67614327    -0.20000
C3205       C  0.23086780  0.14518647  0.66957173    -0.06500
C3206       C  0.23160312  0.12683463  0.68041918     0.14300
C3207       C  0.24628412  0.11044683  0.67521830    -0.23400
H3208       H  0.21814465  0.10933839  0.70422066     0.15600
H3209       H  0.21717813  0.17448955  0.66845690     0.15600
C3210       C  0.19054153  0.17399363  0.69824756    -0.23300
H3211       H  0.24508403  0.09750688  0.68565552     0.05900
H3212       H  0.26190740  0.11632173  0.67617780     0.09100
H3213       H  0.24324312  0.10477083  0.65987339     0.09100
H3214       H  0.19233092  0.17693162  0.71453861     0.09100
H3215       H  0.17462613  0.17030653  0.69482534     0.09100
H3216       H  0.19418240  0.18811101  0.69015463     0.05800
C3217       C  0.21399608  0.16643761  0.55452953    -0.20000
C3218       C  0.21091877  0.16006175  0.57432956    -0.06500
C3219       C  0.19247648  0.15080835  0.57953030     0.14300
C3220       C  0.17818210  0.14690357  0.56451757    -0.20000
C3221       C  0.18229031  0.15109770  0.54432480    -0.06500
C3222       C  0.20009816  0.16167912  0.53933769     0.14300
C3223       C  0.20477742  0.16757708  0.51802606    -0.23400
H3224       H  0.22806227  0.17371877  0.55063456     0.15600
H3225       H  0.16448808  0.13891317  0.56836622     0.15600
C3226       C  0.18797038  0.14456852  0.60078827    -0.23300
H3227       H  0.21856325  0.17699035  0.51712462     0.05900
H3228       H  0.19208035  0.17634879  0.51170339     0.09100
H3229       H  0.20738913  0.15404331  0.50871473     0.09100
H3230       H  0.18956499  0.15768529  0.61093536     0.09100
H3231       H  0.19839079  0.13251074  0.60561738     0.09100
H3232       H  0.17241197  0.13865011  0.60232418     0.05800
C3233       C  0.30790029  0.10682641  0.54235191    -0.20000
C3234       C  0.32855524  0.11001392  0.54537532    -0.06500
C3235       C  0.33537878  0.11697147  0.56425921     0.14300
C3236       C  0.32125836  0.12224953  0.57896714    -0.20000
C3237       C  0.30057352  0.12146194  0.57496332    -0.06500
C3238       C  0.29376132  0.11291891  0.55675912     0.14300
C3239       C  0.27163478  0.11069630  0.55225604    -0.23400
H3240       H  0.30271132  0.10122606  0.52798955     0.15600
H3241       H  0.32641103  0.12860139  0.59303012     0.15600
C3242       C  0.35748787  0.11928518  0.56886604    -0.23300
H3243       H  0.26902883  0.10281136  0.53780810     0.05900
H3244       H  0.26443258  0.12566428  0.55118814     0.09100
H3245       H  0.26427623  0.10185212  0.56430618     0.09100
H3246       H  0.36430207  0.13103773  0.55924615     0.09100
H3247       H  0.36529278  0.10479024  0.56633608     0.09100
H3248       H  0.36005538  0.12379632  0.58469620     0.05800
C3249       C  0.33751933  0.15287764  0.43315946    -0.20000
C3250       C  0.33114378  0.15202044  0.45316758    -0.06500
C3251       C  0.31212393  0.15992341  0.45839526     0.14300
C3252       C  0.29926275  0.16686903  0.44319673    -0.20000
C3253       C  0.30467123  0.16521602  0.42295712    -0.06500
C3254       C  0.32433154  0.15899182  0.41789386     0.14300
C3255       C  0.33123039  0.15818216  0.39639096    -0.23400
H3256       H  0.35221764  0.14706979  0.42924231     0.15600
H3257       H  0.28420780  0.17179340  0.44702098     0.15600
C3258       C  0.30511764  0.16055493  0.47986454    -0.23300
H3259       H  0.34732730  0.15388456  0.39525210     0.05900
H3260       H  0.32938992  0.17316711  0.38934636     0.09100
H3261       H  0.32236555  0.14692386  0.38787097     0.09100
H3262       H  0.31617747  0.16899108  0.48909950     0.09100
H3263       H  0.30345129  0.14511930  0.48587611     0.09100
H3264       H  0.29029578  0.16809819  0.48128426     0.05800
C3265       C  0.40544243  0.05148525  0.42421190    -0.20000
C3266       C  0.39038962  0.03852994  0.41688467    -0.06500
C3267       C  0.37140257  0.03836763  0.42659130     0.14300
C3268       C  0.36769860  0.05200417  0.44228557    -0.20000
C3269       C  0.38240060  0.06576219  0.44870384    -0.06500
C3270       C  0.40180405  0.06494729  0.43996884     0.14300
C3271       C  0.41897808  0.07785283  0.44734978    -0.23400
H3272       H  0.42022304  0.05133929  0.41735735     0.15600
H3273       H  0.35294182  0.05233456  0.44919269     0.15600
C3274       C  0.35477343  0.02424532  0.42041273    -0.23300
H3275       H  0.43339302  0.07395027  0.43990849     0.05900
H3276       H  0.42104079  0.07566229  0.46372615     0.09100
H3277       H  0.41596994  0.09389335  0.44410120     0.09100
H3278       H  0.35984377  0.00847096  0.42219257     0.09100
H3279       H  0.35044555  0.02709924  0.40459762     0.09100
H3280       H  0.34109839  0.02619349  0.42975625     0.05800
C3281       C  0.29810801  0.89399216  0.19177594    -0.20000
C3282       C  0.31384064  0.88068255  0.19638114    -0.06500
C3283       C  0.31598748  0.86299811  0.18484222     0.14300
C3284       C  0.30302112  0.85954869  0.16862647    -0.20000
C3285       C  0.28769425  0.87310501  0.16346037    -0.06500
C3286       C  0.28505491  0.89052076  0.17542881     0.14300
C3287       C  0.26854159  0.90543226  0.17130330    -0.23400
H3288       H  0.29637793  0.90749442  0.20067220     0.15600
H3289       H  0.30514693  0.84613301  0.15970526     0.15600
C3290       C  0.33151860  0.84726151  0.18979942    -0.23300
H3291       H  0.26824033  0.91760219  0.18268269     0.05900
H3292       H  0.25371096  0.89772945  0.17163107     0.09100
H3293       H  0.27088278  0.91255937  0.15645447     0.09100
H3294       H  0.32979367  0.84245664  0.20564456     0.09100
H3295       H  0.34689619  0.85324438  0.18732873     0.09100
H3296       H  0.32987772  0.83371618  0.18021909     0.05800
C3297       C  0.37718459  0.92712304  0.30965630    -0.20000
C3298       C  0.36215284  0.93314007  0.29610426    -0.06500
C3299       C  0.35205607  0.95155811  0.29944619     0.14300
C3300       C  0.35824145  0.96398497  0.31544532    -0.20000
C3301       C  0.37448798  0.95858924  0.32778339    -0.06500
C3302       C  0.38357286  0.93963529  0.32529784     0.14300
C3303       C  0.40029236  0.93266610  0.33893748    -0.23400
H3304       H  0.38468763  0.91287217  0.30742951     0.15600
H3305       H  0.35139374  0.97861509  0.31738176     0.15600
C3306       C  0.33584190  0.95886492  0.28546727    -0.23300
H3307       H  0.40498337  0.91705688  0.33546938     0.05900
H3308       H  0.39511885  0.93307539  0.35474774     0.09100
H3309       H  0.41372288  0.94243590  0.33725269     0.09100
H3310       H  0.32303593  0.94814472  0.28549725     0.09100
H3311       H  0.34193610  0.96027056  0.27004071     0.09100
H3312       H  0.33000643  0.97379239  0.29003885     0.05800
C3313       C  0.40234336  0.95304303  0.05892787    -0.20000
C3314       C  0.38675803  0.95785665  0.04554038    -0.06500
C3315       C  0.37621146  0.97610854  0.04835520     0.14300
C3316       C  0.38144939  0.98878114  0.06451400    -0.20000
C3317       C  0.39687721  0.98375027  0.07811136    -0.06500
C3318       C  0.40744394  0.96547228  0.07513777     0.14300
C3319       C  0.42372521  0.95832665  0.08921651    -0.23400
H3320       H  0.41051045  0.93913239  0.05691134     0.15600
H3321       H  0.37322728  0.00263194  0.06666266     0.15600
C3322       C  0.35901299  0.98209146  0.03490405    -0.23300
H3323       H  0.42967077  0.94337667  0.08486972     0.05900
H3324       H  0.41761098  0.95690651  0.10463558     0.09100
H3325       H  0.43658800  0.96897379  0.08903686     0.09100
H3326       H  0.34708008  0.97040071  0.03534159     0.09100
H3327       H  0.36447358  0.98400685  0.01930703     0.09100
H3328       H  0.35215125  0.99651244  0.03964864     0.05800
C3329       C  0.47751809  0.08498805  0.09457200    -0.20000
C3330       C  0.48685218  0.09461015  0.11093475    -0.06500
C3331       C  0.48275187  0.08733559  0.13052590     0.14300
C3332       C  0.46923819  0.07119319  0.13310113    -0.20000
C3333       C  0.45916456  0.06237877  0.11679754    -0.06500
C3334       C  0.46363284  0.06923772  0.09721603     0.14300
C3335       C  0.45396404  0.05998184  0.07895185    -0.23400
H3336       H  0.48064679  0.09019183  0.07949868     0.15600
H3337       H  0.46576547  0.06603386  0.14811639     0.15600
C3338       C  0.49183350  0.09683886  0.14894432    -0.23300
H3339       H  0.46022452  0.06626175  0.06484693     0.05900
H3340       H  0.43756074  0.06301614  0.07890042     0.09100
H3341       H  0.45661611  0.04353158  0.07887252     0.09100
H3342       H  0.48726484  0.11283668  0.14989998     0.09100
H3343       H  0.50848175  0.09568897  0.14837767     0.09100
H3344       H  0.48673891  0.08932700  0.16291015     0.05800
C3345       C  0.40815336  0.95716143  0.17647456    -0.20000
C3346       C  0.39785218  0.97556304  0.17666961    -0.06500
C3347       C  0.38208437  0.97835237  0.19066740     0.14300
C3348       C  0.37678291  0.96260222  0.20356557    -0.20000
C3349       C  0.38630423  0.94378263  0.20275029    -0.06500
C3350       C  0.40239141  0.94112100  0.18906956     0.14300
C3351       C  0.41296388  0.92127060  0.18693267    -0.23400
H3352       H  0.42016932  0.95499131  0.16572036     0.15600
H3353       H  0.36464083  0.96495305  0.21414533     0.15600
C3354       C  0.37070968  0.99789973  0.19230310    -0.23300
H3355       H  0.42468071  0.92174584  0.17508499     0.05900
H3356       H  0.40192268  0.90943577  0.18277620     0.09100
H3357       H  0.42046627  0.91725235  0.20124129     0.09100
H3358       H  0.36171336  0.00053190  0.17853834     0.09100
H3359       H  0.38140151  0.01051637  0.19463271     0.09100
H3360       H  0.36002081  0.99782367  0.20509250     0.05800
C3361       C  0.39159117  0.19125528  0.22342497    -0.20000
C3362       C  0.37169942  0.18386743  0.22329070    -0.06500
C3363       C  0.35705601  0.19447682  0.21190579     0.14300
C3364       C  0.36321080  0.21007818  0.19909733    -0.20000
C3365       C  0.38334176  0.21630211  0.19803322    -0.06500
C3366       C  0.39748674  0.20755968  0.21124690     0.14300
C3367       C  0.41896792  0.21476263  0.21195950    -0.23400
H3368       H  0.40279217  0.18385739  0.23262414     0.15600
H3369       H  0.35220658  0.21732187  0.18952756     0.15600
C3370       C  0.33488866  0.18963736  0.21291030    -0.23300
H3371       H  0.42807177  0.20607938  0.22289821     0.05900
H3372       H  0.41938091  0.23076985  0.21660085     0.09100
H3373       H  0.42600957  0.21315973  0.19697396     0.09100
H3374       H  0.32970645  0.19030792  0.22872296     0.09100
H3375       H  0.33190567  0.17455420  0.20651845     0.09100
H3376       H  0.32573487  0.20053263  0.20422196     0.05800
C3377       C  0.31292777  0.15708406  0.30372639    -0.20000
C3378       C  0.31168811  0.13824794  0.29446550    -0.06500
C3379       C  0.29760722  0.12404541  0.30170861     0.14300
C3380       C  0.28525722  0.12910517  0.31811359    -0.20000
C3381       C  0.28661412  0.14799078  0.32753114    -0.06500
C3382       C  0.30071465  0.16219379  0.32004677     0.14300
C3383       C  0.30373505  0.18259180  0.32944422    -0.23400
H3384       H  0.32382652  0.16790629  0.29825728     0.15600
H3385       H  0.27467510  0.11809583  0.32380112     0.15600
C3386       C  0.29618575  0.10326794  0.29288467    -0.23300
H3387       H  0.31594663  0.19122814  0.32202214     0.05900
H3388       H  0.30796331  0.18089393  0.34546364     0.09100
H3389       H  0.28976100  0.19157898  0.32805081     0.09100
H3390       H  0.31102096  0.09568836  0.29395521     0.09100
H3391       H  0.29149673  0.10419064  0.27694527     0.09100
H3392       H  0.28497094  0.09384984  0.30089270     0.05800
C3393       C  0.37625860  0.09874166  0.18042675    -0.20000
C3394       C  0.36159500  0.09191662  0.19397587    -0.06500
C3395       C  0.35261836  0.07285564  0.19085777     0.14300
C3396       C  0.35975019  0.06055224  0.17523443    -0.20000
C3397       C  0.37571753  0.06681166  0.16297996    -0.06500
C3398       C  0.38362136  0.08633366  0.16517973     0.14300
C3399       C  0.40040754  0.09380758  0.15193005    -0.23400
H3400       H  0.38292399  0.11345608  0.18256686     0.15600
H3401       H  0.35392789  0.04542143  0.17357277     0.15600
C3402       C  0.33670329  0.06479061  0.20476360    -0.23300
H3403       H  0.40450803  0.10961161  0.15538032     0.05900
H3404       H  0.39563699  0.09304063  0.13599634     0.09100
H3405       H  0.41405175  0.08446339  0.15406309     0.09100
H3406       H  0.32330612  0.07470256  0.20436458     0.09100
H3407       H  0.34267440  0.06403998  0.22029610     0.09100
H3408       H  0.33179932  0.04944561  0.20038964     0.05800
C3409       C  0.38366205  0.06096675  0.28445743    -0.20000
C3410       C  0.38705570  0.08132640  0.28899186    -0.06500
C3411       C  0.39644390  0.08635459  0.30742184     0.14300
C3412       C  0.40203564  0.07094374  0.32074290    -0.20000
C3413       C  0.39778144  0.05078591  0.31644618    -0.06500
C3414       C  0.38860828  0.04569680  0.29804450     0.14300
C3415       C  0.38391607  0.02416046  0.29273349    -0.23400
H3416       H  0.37646704  0.05697414  0.27040919     0.15600
H3417       H  0.40873760  0.07470883  0.33508393     0.15600
C3418       C  0.39944120  0.10785088  0.31378297    -0.23300
H3419       H  0.37738320  0.02281762  0.27745759     0.05900
H3420       H  0.37284120  0.01782764  0.30345739     0.09100
H3421       H  0.39791140  0.01510336  0.29322999     0.09100
H3422       H  0.38471387  0.11570337  0.31409917     0.09100
H3423       H  0.40974502  0.11555775  0.30320570     0.09100
H3424       H  0.40615053  0.10894118  0.32900303     0.05800
C3425       C  0.65413503  0.19274623  0.71509460    -0.20000
C3426       C  0.63785084  0.18177586  0.72301165    -0.06500
C3427       C  0.61800363  0.18754772  0.71752353     0.14300
C3428       C  0.61520416  0.20322620  0.70358436    -0.20000
C3429       C  0.63162708  0.21293845  0.69460988    -0.06500
C3430       C  0.65130935  0.20802217  0.70088624     0.14300
C3431       C  0.66945263  0.21889233  0.69267272    -0.23400
H3432       H  0.66934562  0.18887560  0.71946013     0.15600
H3433       H  0.60012167  0.20715582  0.69879963     0.15600
C3434       C  0.59967789  0.17686980  0.72550200    -0.23300
H3435       H  0.68358197  0.21393508  0.70005728     0.05900
H3436       H  0.66784402  0.23528851  0.69520105     0.09100
H3437       H  0.67102745  0.21592150  0.67639660     0.09100
H3438       H  0.59927553  0.17805055  0.74209096     0.09100
H3439       H  0.59996626  0.16084587  0.72093722     0.09100
H3440       H  0.58552128  0.18347587  0.71961247     0.05800
C3441       C  0.59123709  0.31787974  0.61676430    -0.20000
C3442       C  0.58700292  0.30663671  0.63412066    -0.06500
C3443       C  0.57000867  0.31195871  0.64583765     0.14300
C3444       C  0.55730648  0.32755859  0.63930651    -0.20000
C3445       C  0.56077723  0.33751570  0.62113927    -0.06500
C3446       C  0.57824423  0.33298866  0.60997989     0.14300
C3447       C  0.58320067  0.34394607  0.59079087    -0.23400
H3448       H  0.60440251  0.31428090  0.60790554     0.15600
H3449       H  0.54386477  0.33111567  0.64775853     0.15600
C3450       C  0.56441470  0.30068647  0.66459725    -0.23300
H3451       H  0.59798394  0.33926037  0.58462750     0.05900
H3452       H  0.58383546  0.36035760  0.59363276     0.09100
H3453       H  0.57165226  0.34075434  0.57919522     0.09100
H3454       H  0.57671224  0.30196991  0.67579760     0.09100
H3455       H  0.56161654  0.28464674  0.66098455     0.09100
H3456       H  0.55051631  0.30672896  0.67155590     0.05800
C3457       C  0.53010281  0.08009372  0.62484545    -0.20000
C3458       C  0.53303325  0.09078623  0.60688214    -0.06500
C3459       C  0.54871694  0.08464212  0.59380541     0.14300
C3460       C  0.56132032  0.06874247  0.59948070    -0.20000
C3461       C  0.55892318  0.05868746  0.61780414    -0.06500
C3462       C  0.54282587  0.06418286  0.63048588     0.14300
C3463       C  0.53960152  0.05413478  0.65044893    -0.23400
H3464       H  0.51810934  0.08456556  0.63485959     0.15600
H3465       H  0.57357526  0.06442914  0.58968844     0.15600
C3466       C  0.55303681  0.09510815  0.57420617    -0.23300
H3467       H  0.52677022  0.06081292  0.65873371     0.05900
H3468       H  0.55329130  0.05582262  0.65986968     0.09100
H3469       H  0.53626977  0.03796060  0.64818997     0.09100
H3470       H  0.55667725  0.11114980  0.57696945     0.09100
H3471       H  0.53982526  0.09382932  0.56408622     0.09100
H3472       H  0.56608027  0.08839478  0.56628048     0.05800
C3473       C  0.42879732  0.10965615  0.53684212    -0.20000
C3474       C  0.42176376  0.12517903  0.52438367    -0.06500
C3475       C  0.43218009  0.14380703  0.52443230     0.14300
C3476       C  0.44854844  0.14656698  0.53754838    -0.20000
C3477       C  0.45479628  0.13135352  0.55068798    -0.06500
C3478       C  0.44509405  0.11244302  0.54992295     0.14300
C3479       C  0.45206320  0.09491647  0.56244160    -0.23400
H3480       H  0.42124062  0.09521578  0.53670431     0.15600
H3481       H  0.45614880  0.16098537  0.53799661     0.15600
C3482       C  0.42634966  0.16089702  0.51082279    -0.23300
H3483       H  0.44367111  0.08094258  0.55876087     0.05900
H3484       H  0.44962732  0.09802793  0.57857707     0.09100
H3485       H  0.46827433  0.09207104  0.55963938     0.09100
H3486       H  0.41101201  0.16624051  0.51457971     0.09100
H3487       H  0.42688166  0.15588596  0.49496115     0.09100
H3488       H  0.43673921  0.17389563  0.51238585     0.05800
C3489       C  0.57072944  0.17744443  0.60451419    -0.20000
C3490       C  0.55307158  0.18487818  0.59561666    -0.06500
C3491       C  0.55175781  0.20562504  0.59120842     0.14300
C3492       C  0.56732957  0.21855567  0.59748933    -0.20000
C3493       C  0.58438573  0.21119991  0.60752486    -0.06500
C3494       C  0.58645334  0.19030702  0.61036120     0.14300
C3495       C  0.60456834  0.18165300  0.62083423    -0.23400
H3496       H  0.57183629  0.16153955  0.60775282     0.15600
H3497       H  0.56581144  0.23461554  0.59532856     0.15600
C3498       C  0.53351424  0.21441215  0.58107455    -0.23300
H3499       H  0.60352434  0.16506774  0.62224992     0.05900
H3500       H  0.60590349  0.18806748  0.63614243     0.09100
H3501       H  0.61836088  0.18523250  0.61216691     0.09100
H3502       H  0.51986606  0.21140312  0.59017441     0.09100
H3503       H  0.53167756  0.20765793  0.56596768     0.09100
H3504       H  0.53490574  0.23092137  0.57914833     0.05800
C3505       C  0.33352359  0.22075916  0.64759566    -0.20000
C3506       C  0.34055929  0.23281015  0.63174169    -0.06500
C3507       C  0.33034391  0.23180370  0.61304700     0.14300
C3508       C  0.31404993  0.21839312  0.61068245    -0.20000
C3509       C  0.30774056  0.20576940  0.62633582    -0.06500
C3510       C  0.31735813  0.20737141  0.64520144     0.14300
C3511       C  0.31040963  0.19541320  0.66311898    -0.23400
H3512       H  0.34087766  0.22159801  0.66208007     0.15600
H3513       H  0.30660397  0.21726461  0.59625574     0.15600
C3514       C  0.33660843  0.24438730  0.59535091    -0.23300
H3515       H  0.31865921  0.19971715  0.67696553     0.05900
H3516       H  0.31306148  0.17917520  0.66064426     0.09100
H3517       H  0.29414470  0.19812086  0.66576046     0.09100
H3518       H  0.35234564  0.24081647  0.59111627     0.09100
H3519       H  0.33530366  0.26055828  0.59913659     0.09100
H3520       H  0.32696445  0.24153063  0.58203415     0.05800
C3521       C  0.45596919  0.21938916  0.64514978    -0.20000
C3522       C  0.43520518  0.21578148  0.64376209    -0.06500
C3523       C  0.42832374  0.19635460  0.63851833     0.14300
C3524       C  0.44234105  0.18145138  0.63336368    -0.20000
C3525       C  0.46298457  0.18572777  0.63270913    -0.06500
C3526       C  0.46996381  0.20466407  0.63939933     0.14300
C3527       C  0.49213878  0.20946765  0.64017255    -0.23400
H3528       H  0.46122839  0.23421963  0.64937197     0.15600
H3529       H  0.43705054  0.16688413  0.62833644     0.15600
C3530       C  0.40619248  0.19137640  0.63803948    -0.23300
H3531       H  0.49498147  0.22458277  0.64661936     0.05900
H3532       H  0.49867520  0.20924252  0.62489080     0.09100
H3533       H  0.49998281  0.19824729  0.64967725     0.09100
H3534       H  0.39846652  0.20036499  0.62635571     0.09100
H3535       H  0.39940060  0.19462540  0.65288007     0.09100
H3536       H  0.40353458  0.17527593  0.63457767     0.05800
C3537       C  0.42952024  0.32754826  0.60912438    -0.20000
C3538       C  0.43313922  0.30686392  0.60761236    -0.06500
C3539       C  0.45131453  0.30009807  0.59889695     0.14300
C3540       C  0.46597512  0.31417342  0.59313936    -0.20000
C3541       C  0.46309377  0.33470753  0.59649642    -0.06500
C3542       C  0.44446705  0.34157377  0.60397179     0.14300
C3543       C  0.44057749  0.36366219  0.60695567    -0.23400
H3544       H  0.41558797  0.33270217  0.61579527     0.15600
H3545       H  0.48028660  0.30904636  0.58727674     0.15600
C3546       C  0.45544770  0.27804564  0.59597929    -0.23300
H3547       H  0.42507695  0.36647901  0.61246481     0.05900
H3548       H  0.44247722  0.37170397  0.59249942     0.09100
H3549       H  0.45127281  0.36993058  0.61811979     0.09100
H3550       H  0.44323348  0.27120160  0.58687751     0.09100
H3551       H  0.45637954  0.27030009  0.61066492     0.09100
H3552       H  0.46991584  0.27551398  0.58806459     0.05800
C3553       C  0.97536209  0.94570381  0.10090671    -0.20000
C3554       C  0.98296044  0.93526506  0.11762616    -0.06500
C3555       C  0.97704978  0.94161160  0.13705160     0.14300
C3556       C  0.96322572  0.95747409  0.13906804    -0.20000
C3557       C  0.95469656  0.96692154  0.12228683    -0.06500
C3558       C  0.96126364  0.96125769  0.10292796     0.14300
C3559       C  0.95363925  0.97155617  0.08426899    -0.23400
H3560       H  0.98000350  0.94126660  0.08599299     0.15600
H3561       H  0.95824277  0.96183759  0.15389791     0.15600
C3562       C  0.98443499  0.93133354  0.15577631    -0.23300
H3563       H  0.96153208  0.96620494  0.07061920     0.05900
H3564       H  0.95614068  0.98800007  0.08547625     0.09100
H3565       H  0.93738129  0.96841487  0.08213560     0.09100
H3566       H  0.00106318  0.93257954  0.15676938     0.09100
H3567       H  0.97986473  0.91529064  0.15560175     0.09100
H3568       H  0.97805534  0.93819893  0.16953641     0.05800
C3569       C  0.07350163  0.90669545  0.06181572    -0.20000
C3570       C  0.05915003  0.89176933  0.05755355    -0.06500
C3571       C  0.06097222  0.88076978  0.03945431     0.14300
C3572       C  0.07712395  0.88491872  0.02638340    -0.20000
C3573       C  0.09164071  0.89965473  0.03088691    -0.06500
C3574       C  0.08971610  0.91066513  0.04898208     0.14300
C3575       C  0.10512185  0.92600076  0.05556791    -0.23400
H3576       H  0.07229253  0.91518225  0.07562441     0.15600
H3577       H  0.07856469  0.87639007  0.01263404     0.15600
C3578       C  0.04649139  0.86418961  0.03405108    -0.23300
H3579       H  0.10173431  0.93216148  0.07066328     0.05900
H3580       H  0.10533263  0.93882678  0.04496764     0.09100
H3581       H  0.12023870  0.91895929  0.05632590     0.09100
H3582       H  0.03107178  0.87034793  0.03242722     0.09100
H3583       H  0.04666860  0.85245025  0.04586993     0.09100
H3584       H  0.05053557  0.85689937  0.01964388     0.05800
C3585       C  0.82869051  0.74096393  0.12149497    -0.20000
C3586       C  0.84350566  0.73422678  0.13494507    -0.06500
C3587       C  0.84129544  0.71506231  0.14385669     0.14300
C3588       C  0.82445921  0.70327336  0.13916185    -0.20000
C3589       C  0.80964281  0.70978316  0.12560137    -0.06500
C3590       C  0.81170877  0.72907364  0.11680209     0.14300
C3591       C  0.79647975  0.73707047  0.10211312    -0.23400
H3592       H  0.83042766  0.75560400  0.11461553     0.15600
H3593       H  0.82305739  0.68859663  0.14601476     0.15600
C3594       C  0.85710370  0.70634243  0.15759640    -0.23300
H3595       H  0.80074209  0.75216592  0.09644100     0.05900
H3596       H  0.78159218  0.73843749  0.10950693     0.09100
H3597       H  0.79530309  0.72682923  0.08903371     0.09100
H3598       H  0.85808155  0.71525860  0.17160681     0.09100
H3599       H  0.87193676  0.70625965  0.14993289     0.09100
H3600       H  0.85355794  0.69063923  0.16194930     0.05800
C3601       C  0.86528553  0.81613865  0.19715850    -0.20000
C3602       C  0.88497119  0.80864295  0.19656428    -0.06500
C3603       C  0.89969290  0.81719508  0.20932085     0.14300
C3604       C  0.89431401  0.83310833  0.22214010    -0.20000
C3605       C  0.87473143  0.84115746  0.22219982    -0.06500
C3606       C  0.85998439  0.83235438  0.20946132     0.14300
C3607       C  0.83882334  0.84037110  0.20775632    -0.23400
H3608       H  0.85402737  0.80965978  0.18730590     0.15600
H3609       H  0.90573460  0.83978891  0.23164702     0.15600
C3610       C  0.92133960  0.81055503  0.20861263    -0.23300
H3611       H  0.82969222  0.83183540  0.19668978     0.05900
H3612       H  0.83920591  0.85624041  0.20265138     0.09100
H3613       H  0.83106988  0.83920828  0.22242799     0.09100
H3614       H  0.92732919  0.81250457  0.19319551     0.09100
H3615       H  0.92249434  0.79456152  0.21309798     0.09100
H3616       H  0.93096612  0.81946868  0.21893837     0.05800
C3617       C  0.96758701  0.81934049  0.09938846    -0.20000
C3618       C  0.96382293  0.83953594  0.10402889    -0.06500
C3619       C  0.94462487  0.84499315  0.11144862     0.14300
C3620       C  0.93041189  0.82990270  0.11569267    -0.20000
C3621       C  0.93513378  0.80953972  0.11321201    -0.06500
C3622       C  0.95358085  0.80424272  0.10412527     0.14300
C3623       C  0.95864536  0.78266400  0.09959713    -0.23400
H3624       H  0.98211156  0.81516890  0.09332229     0.15600
H3625       H  0.91613502  0.83394635  0.12239698     0.15600
C3626       C  0.93907888  0.86662048  0.11514883    -0.23300
H3627       H  0.97312773  0.78135113  0.09142350     0.05900
H3628       H  0.94665238  0.77596973  0.09009088     0.09100
H3629       H  0.96006261  0.77391909  0.11366823     0.09100
H3630       H  0.94155367  0.87553474  0.10130119     0.09100
H3631       H  0.94824972  0.87293639  0.12754123     0.09100
H3632       H  0.92302136  0.86818130  0.11945853     0.05800
C3633       C  0.03403443  0.58074467  0.12306084    -0.20000
C3634       C  0.04031262  0.59537179  0.10921771    -0.06500
C3635       C  0.05937722  0.59322631  0.10001233     0.14300
C3636       C  0.07141092  0.57665604  0.10474577    -0.20000
C3637       C  0.06529189  0.56191075  0.11855392    -0.06500
C3638       C  0.04615794  0.56400181  0.12777877     0.14300
C3639       C  0.03833071  0.54886292  0.14261524    -0.23400
H3640       H  0.01947721  0.58238010  0.13018641     0.15600
H3641       H  0.08601863  0.57544073  0.09765267     0.15600
C3642       C  0.06774175  0.60873619  0.08580235    -0.23300
H3643       H  0.02305842  0.55282959  0.14807508     0.05900
H3644       H  0.04846122  0.54818678  0.15583099     0.09100
H3645       H  0.03734796  0.53386270  0.13543006     0.09100
H3646       H  0.06772537  0.62359797  0.09321761     0.09100
H3647       H  0.05857345  0.60927947  0.07191491     0.09100
H3648       H  0.08347655  0.60538692  0.08132687     0.05800
C3649       C  0.95393424  0.65176640  0.03711891    -0.20000
C3650       C  0.96301492  0.63574239  0.04739713    -0.06500
C3651       C  0.95576469  0.61601770  0.04403647     0.14300
C3652       C  0.93908005  0.61302739  0.03147639    -0.20000
C3653       C  0.92906784  0.62911914  0.02219756    -0.06500
C3654       C  0.93692476  0.64878709  0.02477091     0.14300
C3655       C  0.92702087  0.66683716  0.01544165    -0.23400
H3656       H  0.95948879  0.66687172  0.03963095     0.15600
H3657       H  0.93351145  0.59788127  0.02928613     0.15600
C3658       C  0.96550343  0.59789571  0.05352518    -0.23300
H3659       H  0.93487035  0.68100471  0.01952142     0.05900
H3660       H  0.91122945  0.66800075  0.02072728     0.09100
H3661       H  0.92730517  0.66551815  0.99886774     0.09100
H3662       H  0.96320339  0.59803868  0.06998272     0.09100
H3663       H  0.98184583  0.59777889  0.05008755     0.09100
H3664       H  0.95894014  0.58364598  0.04782273     0.05800
C3665       C  0.97068299  0.69961577  0.14564297    -0.20000
C3666       C  0.96348485  0.68281726  0.13506093    -0.06500
C3667       C  0.94247855  0.68057176  0.13225989     0.14300
C3668       C  0.92954947  0.69618174  0.13815088    -0.20000
C3669       C  0.93698361  0.71374945  0.14718689    -0.06500
C3670       C  0.95768237  0.71499001  0.15195995     0.14300
C3671       C  0.96638594  0.73307174  0.16243640    -0.23400
H3672       H  0.98673711  0.70122370  0.14806173     0.15600
H3673       H  0.91361292  0.69509344  0.13482606     0.15600
C3674       C  0.93367075  0.66247726  0.12186579    -0.23300
H3675       H  0.98290710  0.73171834  0.16456911     0.05900
H3676       H  0.95942653  0.73466963  0.17746732     0.09100
H3677       H  0.96348600  0.74680370  0.15346277     0.09100
H3678       H  0.93749849  0.64868900  0.13039835     0.09100
H3679       H  0.93968823  0.66133572  0.10639534     0.09100
H3680       H  0.91701141  0.66334083  0.12083345     0.05800
C3681       C  0.19646806  0.81815827  0.13896870    -0.20000
C3682       C  0.20970459  0.81234467  0.12363827    -0.06500
C3683       C  0.20595483  0.79406858  0.11336820     0.14300
C3684       C  0.18886797  0.78251176  0.11845562    -0.20000
C3685       C  0.17572184  0.78849509  0.13382989    -0.06500
C3686       C  0.17964813  0.80663000  0.14418051     0.14300
C3687       C  0.16575469  0.81455873  0.16021566    -0.23400
H3688       H  0.19916536  0.83208615  0.14693564     0.15600
H3689       H  0.18579821  0.76867660  0.11044596     0.15600
C3690       C  0.21952565  0.78683015  0.09683723    -0.23300
H3691       H  0.17047471  0.82961419  0.16563848     0.05900
H3692       H  0.16581029  0.80435874  0.17336015     0.09100
H3693       H  0.15023774  0.81596060  0.15416775     0.09100
H3694       H  0.23487608  0.78418827  0.10285235     0.09100
H3695       H  0.22016257  0.79817192  0.08466355     0.09100
H3696       H  0.21407793  0.77249819  0.09024166     0.05800
C3697       C  0.15574748  0.70355371  0.19254833    -0.20000
C3698       C  0.13623014  0.71135783  0.19373226    -0.06500
C3699       C  0.12260306  0.70303248  0.20770278     0.14300
C3700       C  0.12876416  0.68680326  0.21977690    -0.20000
C3701       C  0.14823362  0.67859732  0.21829215    -0.06500
C3702       C  0.16202747  0.68746865  0.20460332     0.14300
C3703       C  0.18329130  0.68000278  0.20201951    -0.23400
H3704       H  0.16616755  0.71001038  0.18182627     0.15600
H3705       H  0.11808957  0.68021397  0.23014826     0.15600
C3706       C  0.10128589  0.71049802  0.20923001    -0.23300
H3707       H  0.19171783  0.68884109  0.19066406     0.05900
H3708       H  0.18313486  0.66415432  0.19686970     0.09100
H3709       H  0.19161555  0.68133893  0.21639819     0.09100
H3710       H  0.09367093  0.70902526  0.19447480     0.09100
H3711       H  0.10125809  0.72647113  0.21393882     0.09100
H3712       H  0.09245075  0.70182550  0.22040613     0.05800
C3713       C  0.04758450  0.82236173  0.14763577    -0.20000
C3714       C  0.05534606  0.84093652  0.14125524    -0.06500
C3715       C  0.07644189  0.84396035  0.14156653     0.14300
C3716       C  0.08913830  0.82780292  0.14649813    -0.20000
C3717       C  0.08134370  0.80881264  0.15145485    -0.06500
C3718       C  0.06025182  0.80631508  0.15280935     0.14300
C3719       C  0.05091546  0.78643202  0.15830971    -0.23400
H3720       H  0.03143700  0.82005396  0.14758191     0.15600
H3721       H  0.10531484  0.82975505  0.14562769     0.15600
C3722       C  0.08576534  0.86368414  0.13551890    -0.23300
H3723       H  0.03421314  0.78702163  0.15793612     0.05900
H3724       H  0.05553893  0.78215286  0.17371028     0.09100
H3725       H  0.05582047  0.77470504  0.14759604     0.09100
H3726       H  0.08047510  0.87574577  0.14569664     0.09100
H3727       H  0.08156447  0.86736873  0.11983883     0.09100
H3728       H  0.10245584  0.86324150  0.13641505     0.05800
C3729       C  0.05016952  0.71060554  0.09666895    -0.20000
C3730       C  0.05530074  0.69020664  0.09732247    -0.06500
C3731       C  0.07515313  0.68465883  0.10271091     0.14300
C3732       C  0.08890501  0.69956909  0.10847091    -0.20000
C3733       C  0.08302052  0.71967696  0.10993707    -0.06500
C3734       C  0.06363185  0.72540784  0.10335854     0.14300
C3735       C  0.05686474  0.74698589  0.10379971    -0.23400
H3736       H  0.03499826  0.71486528  0.09245901     0.15600
H3737       H  0.10384134  0.69527874  0.11343201     0.15600
C3738       C  0.08193776  0.66311147  0.10272164    -0.23300
H3739       H  0.04175681  0.74885174  0.09691528     0.05900
H3740       H  0.06766674  0.75648175  0.09535511     0.09100
H3741       H  0.05584870  0.75234899  0.11947493     0.09100
H3742       H  0.07942693  0.65656337  0.08764157     0.09100
H3743       H  0.07360444  0.65439303  0.11419577     0.09100
H3744       H  0.09821365  0.66174315  0.10628759     0.05800
C3745       C  0.31546417  0.72381968  0.38228511    -0.20000
C3746       C  0.30756350  0.71148155  0.36715106    -0.06500
C3747       C  0.31649959  0.71190185  0.34793260     0.14300
C3748       C  0.33354166  0.72395116  0.34462868    -0.20000
C3749       C  0.34213322  0.73570910  0.35996640    -0.06500
C3750       C  0.33267138  0.73580141  0.37906162     0.14300
C3751       C  0.34057442  0.74816541  0.39627863    -0.23400
H3752       H  0.30857834  0.72347482  0.39700186     0.15600
H3753       H  0.34036868  0.72388654  0.32989732     0.15600
C3754       C  0.30789103  0.70006659  0.33063630    -0.23300
H3755       H  0.33105530  0.74658664  0.40986288     0.05900
H3756       H  0.34073687  0.76429163  0.39208266     0.09100
H3757       H  0.35598371  0.74318307  0.40031591     0.09100
H3758       H  0.29181597  0.70405180  0.32846751     0.09100
H3759       H  0.30923531  0.68373454  0.33352813     0.09100
H3760       H  0.31593383  0.70328017  0.31640412     0.05800
C3761       C  0.39965739  0.81818401  0.28639597    -0.20000
C3762       C  0.38397743  0.80820539  0.29639447    -0.06500
C3763       C  0.36389716  0.81396641  0.29239049     0.14300
C3764       C  0.36008288  0.82986665  0.27907524    -0.20000
C3765       C  0.37574860  0.84084808  0.27000429    -0.06500
C3766       C  0.39589222  0.83463072  0.27357497     0.14300
C3767       C  0.41361202  0.84568159  0.26479929    -0.23400
H3768       H  0.41504352  0.81381589  0.28953339     0.15600
H3769       H  0.34462425  0.83421256  0.27634725     0.15600
C3770       C  0.34631297  0.80343948  0.30211400    -0.23300
H3771       H  0.42814545  0.83887106  0.26939814     0.05900
H3772       H  0.41363541  0.86149552  0.27006905     0.09100
H3773       H  0.41284592  0.84523308  0.24819040     0.09100
H3774       H  0.34640135  0.80615913  0.31851645     0.09100
H3775       H  0.34713404  0.78706304  0.29913679     0.09100
H3776       H  0.33169246  0.80896723  0.29624720     0.05800
C3777       C  0.48216538  0.94355185  0.36957884    -0.20000
C3778       C  0.48111783  0.93399835  0.38835981    -0.06500
C3779       C  0.46781635  0.94189232  0.40304200     0.14300
C3780       C  0.45506664  0.95788447  0.39795056    -0.20000
C3781       C  0.45523486  0.96652188  0.37877504    -0.06500
C3782       C  0.46953089  0.95973016  0.36462945     0.14300
C3783       C  0.47102125  0.96876330  0.34398004    -0.23400
H3784       H  0.49254236  0.93797000  0.35840294     0.15600
H3785       H  0.44440956  0.96337006  0.40894699     0.15600
C3786       C  0.46644948  0.93352950  0.42402061    -0.23300
H3787       H  0.48275161  0.96130729  0.33478766     0.05900
H3788       H  0.47508777  0.98489537  0.34516073     0.09100
H3789       H  0.45643320  0.96713253  0.33601060     0.09100
H3790       H  0.48140067  0.93437802  0.43142757     0.09100
H3791       H  0.46106978  0.91775156  0.42357202     0.09100
H3792       H  0.45570758  0.94209805  0.43344853     0.05800
C3793       C  0.57174894  0.91165538  0.43805860    -0.20000
C3794       C  0.55920297  0.89537025  0.44291662    -0.06500
C3795       C  0.56326845  0.88431589  0.46059229     0.14300
C3796       C  0.57985922  0.88967921  0.47262988    -0.20000
C3797       C  0.59262379  0.90576787  0.46756608    -0.06500
C3798       C  0.58837248  0.91695340  0.44995441     0.14300
C3799       C  0.60164266  0.93395755  0.44291849    -0.23400
H3800       H  0.56874321  0.92017048  0.42453431     0.15600
H3801       H  0.58305000  0.88100376  0.48600288     0.15600
C3802       C  0.55078740  0.86636622  0.46651441    -0.23300
H3803       H  0.59644974  0.94028249  0.42839970     0.05900
H3804       H  0.61726325  0.92849046  0.44074022     0.09100
H3805       H  0.60147114  0.94633879  0.45403657     0.09100
H3806       H  0.55104236  0.85499745  0.45434343     0.09100
H3807       H  0.53506092  0.87107125  0.46946849     0.09100
H3808       H  0.55659334  0.85911264  0.48034414     0.05800
C3809       C  0.44579792  0.84205681  0.38838893    -0.20000
C3810       C  0.46503543  0.83562700  0.39419866    -0.06500
C3811       C  0.46940417  0.81487351  0.39428830     0.14300
C3812       C  0.45481422  0.80118992  0.38743461    -0.20000
C3813       C  0.43584629  0.80768329  0.38078346    -0.06500
C3814       C  0.43104506  0.82833373  0.38192284     0.14300
C3815       C  0.41089161  0.83616275  0.37516828    -0.23400
H3816       H  0.44255747  0.85799169  0.38823098     0.15600
H3817       H  0.45850019  0.78536919  0.38654166     0.15600
C3818       C  0.48986057  0.80721300  0.40026944    -0.23300
H3819       H  0.40995030  0.85275135  0.37655608     0.05900
H3820       H  0.39880392  0.82955367  0.38456591     0.09100
H3821       H  0.40827993  0.83218658  0.35921178     0.09100
H3822       H  0.49300519  0.81124381  0.41610578     0.09100
H3823       H  0.50151290  0.81397708  0.39047704     0.09100
H3824       H  0.49089836  0.79062869  0.39887211     0.05800
C3825       C  0.68280891  0.80844242  0.34619419    -0.20000
C3826       C  0.67730991  0.79365906  0.36022531    -0.06500
C3827       C  0.68885672  0.79192199  0.37806586     0.14300
C3828       C  0.70492484  0.80536407  0.38154097    -0.20000
C3829       C  0.70958295  0.82079445  0.36793996    -0.06500
C3830       C  0.69854779  0.82203146  0.34978778     0.14300
C3831       C  0.70320021  0.83750109  0.33389437    -0.23400
H3832       H  0.67438379  0.80977641  0.33234086     0.15600
H3833       H  0.71343845  0.80426893  0.39536837     0.15600
C3834       C  0.68420882  0.77635518  0.39377533    -0.23300
H3835       H  0.69411063  0.83514238  0.32011066     0.05900
H3836       H  0.71931441  0.83660343  0.32961144     0.09100
H3837       H  0.69964955  0.85277260  0.33948957     0.09100
H3838       H  0.68542834  0.76110035  0.38719770     0.09100
H3839       H  0.66881024  0.77873060  0.39973676     0.09100
H3840       H  0.69482526  0.77719434  0.40662221     0.05800
C3841       C  0.65714966  0.70945851  0.29934474    -0.20000
C3842       C  0.63829697  0.71865754  0.29767396    -0.06500
C3843       C  0.62465699  0.71170865  0.28289680     0.14300
C3844       C  0.62985723  0.69493624  0.27110735    -0.20000
C3845       C  0.64838146  0.68497488  0.27360534    -0.06500
C3846       C  0.66246385  0.69288583  0.28760409     0.14300
C3847       C  0.68303172  0.68388799  0.29091965    -0.23400
H3848       H  0.66773080  0.71500430  0.31043411     0.15600
H3849       H  0.61912542  0.68926712  0.26024074     0.15600
C3850       C  0.60432594  0.72126361  0.28004682    -0.23300
H3851       H  0.69191814  0.69238151  0.30221026     0.05900
H3852       H  0.69171386  0.68416097  0.27671694     0.09100
H3853       H  0.68155666  0.66827188  0.29655329     0.09100
H3854       H  0.60621983  0.73721596  0.27559619     0.09100
H3855       H  0.59559100  0.72038188  0.29419227     0.09100
H3856       H  0.59546341  0.71365217  0.26812788     0.05800
C3857       C  0.58191174  0.82720872  0.34485940    -0.20000
C3858       C  0.57806038  0.80719761  0.35033939    -0.06500
C3859       C  0.56023205  0.80241457  0.36071973     0.14300
C3860       C  0.54734024  0.81783056  0.36654901    -0.20000
C3861       C  0.55195525  0.83808073  0.36288666    -0.06500
C3862       C  0.56911908  0.84285165  0.35124010     0.14300
C3863       C  0.57470337  0.86426730  0.34662605    -0.23400
H3864       H  0.59562687  0.83072888  0.33680218     0.15600
H3865       H  0.53397339  0.81402551  0.37499299     0.15600
C3866       C  0.55488331  0.78103386  0.36609893    -0.23300
H3867       H  0.58880177  0.86521719  0.33774495     0.05900
H3868       H  0.57704149  0.87270489  0.36079395     0.09100
H3869       H  0.56252443  0.87144268  0.33778714     0.09100
H3870       H  0.56606771  0.77480295  0.37676078     0.09100
H3871       H  0.55452181  0.77166713  0.35234386     0.09100
H3872       H  0.53988562  0.77999357  0.37336321     0.05800
C3873       C  0.53680052  0.58215287  0.36699468    -0.20000
C3874       C  0.53875086  0.59256490  0.38528668    -0.06500
C3875       C  0.55430385  0.58666073  0.39869380     0.14300
C3876       C  0.56730960  0.57098258  0.39335561    -0.20000
C3877       C  0.56569574  0.56094400  0.37493581    -0.06500
C3878       C  0.55006008  0.56653081  0.36161281     0.14300
C3879       C  0.54773914  0.55676931  0.34136985    -0.23400
H3880       H  0.52508891  0.58655899  0.35656952     0.15600
H3881       H  0.57922196  0.56676158  0.40363060     0.15600
C3882       C  0.55798416  0.59702199  0.41848936    -0.23300
H3883       H  0.53520443  0.56347390  0.33263330     0.05900
H3884       H  0.54444038  0.54053666  0.34322688     0.09100
H3885       H  0.56177909  0.55872761  0.33256643     0.09100
H3886       H  0.54452747  0.59552776  0.42821439     0.09100
H3887       H  0.56158199  0.61311045  0.41594033     0.09100
H3888       H  0.57087664  0.59041072  0.42676663     0.05800
C3889       C  0.43486027  0.64469476  0.46951772    -0.20000
C3890       C  0.42724156  0.62497093  0.47022181    -0.06500
C3891       C  0.43767378  0.60968336  0.45968803     0.14300
C3892       C  0.45437438  0.61476267  0.44785238    -0.20000
C3893       C  0.46119782  0.63463523  0.44608698    -0.06500
C3894       C  0.45160455  0.64974917  0.45753043     0.14300
C3895       C  0.45819084  0.67136463  0.45639062    -0.23400
H3896       H  0.42718122  0.65641992  0.47774487     0.15600
H3897       H  0.46188914  0.60309363  0.43939370     0.15600
C3898       C  0.43149616  0.58788449  0.46068704    -0.23300
H3899       H  0.44867165  0.68122454  0.46586496     0.05900
H3900       H  0.45708803  0.67678248  0.44069016     0.09100
H3901       H  0.47395118  0.67280513  0.46172825     0.09100
H3902       H  0.41662055  0.58573012  0.45341954     0.09100
H3903       H  0.43088656  0.58288692  0.47655583     0.09100
H3904       H  0.44231087  0.57801133  0.45273969     0.05800
C3905       C  0.56627042  0.68304016  0.37001603    -0.20000
C3906       C  0.55654835  0.68563534  0.38855906    -0.06500
C3907       C  0.56285138  0.70171360  0.40109089     0.14300
C3908       C  0.57766237  0.71530691  0.39413634    -0.20000
C3909       C  0.58594012  0.71346880  0.37486556    -0.06500
C3910       C  0.58058744  0.69676127  0.36294363     0.14300
C3911       C  0.58988046  0.69329847  0.34258599    -0.23400
H3912       H  0.56208700  0.67054648  0.36047431     0.15600
H3913       H  0.58194342  0.72805392  0.40330354     0.15600
C3914       C  0.55358280  0.70519531  0.42136824    -0.23300
H3915       H  0.58497380  0.67880703  0.33593539     0.05900
H3916       H  0.60653414  0.69300827  0.34392251     0.09100
H3917       H  0.58535409  0.70534038  0.33203227     0.09100
H3918       H  0.55601675  0.69185332  0.43103927     0.09100
H3919       H  0.53721564  0.70807554  0.41972111     0.09100
H3920       H  0.56035761  0.71837184  0.42905024     0.05800
C3921       C  0.44195565  0.67977629  0.36380391    -0.20000
C3922       C  0.46259328  0.68235174  0.36045946    -0.06500
C3923       C  0.46934740  0.69892730  0.34908365     0.14300
C3924       C  0.45547334  0.71360906  0.34296670    -0.20000
C3925       C  0.43508016  0.71215775  0.34822276    -0.06500
C3926       C  0.42806672  0.69450454  0.35784652     0.14300
C3927       C  0.40600585  0.69111096  0.36194105    -0.23400
H3928       H  0.43682884  0.66685583  0.37228649     0.15600
H3929       H  0.46080492  0.72688828  0.33520826     0.15600
C3930       C  0.49122032  0.70119352  0.34357606    -0.23300
H3931       H  0.40315802  0.67590226  0.36816827     0.05900
H3932       H  0.39734090  0.69250017  0.34776572     0.09100
H3933       H  0.40036458  0.70214933  0.37300752     0.09100
H3934       H  0.49618548  0.68777572  0.33504028     0.09100
H3935       H  0.50058546  0.70274593  0.35726332     0.09100
H3936       H  0.49382893  0.71464298  0.33408187     0.05800
C3937       C  0.38817469  0.68554321  0.77508901    -0.20000
C3938       C  0.36859755  0.67741474  0.77564587    -0.06500
C3939       C  0.35398084  0.68704524  0.78784570     0.14300
C3940       C  0.35964841  0.70356562  0.79970468    -0.20000
C3941       C  0.37937419  0.71115146  0.79971031    -0.06500
C3942       C  0.39374575  0.70220940  0.78689197     0.14300
C3943       C  0.41520375  0.70950799  0.78618708    -0.23400
H3944       H  0.39943858  0.67849416  0.76572100     0.15600
H3945       H  0.34854063  0.71050565  0.80935171     0.15600
C3946       C  0.33234436  0.68018291  0.78873352    -0.23300
H3947       H  0.42452048  0.70039002  0.77581637     0.05900
H3948       H  0.42205769  0.70854187  0.80134261     0.09100
H3949       H  0.41564779  0.72527668  0.78083463     0.09100
H3950       H  0.33145214  0.66480580  0.79507101     0.09100
H3951       H  0.32563224  0.68050009  0.77348606     0.09100
H3952       H  0.32306017  0.69004846  0.79843308     0.05800
C3953       C  0.30043577  0.61573570  0.68961859    -0.20000
C3954       C  0.30627019  0.63177146  0.70204256    -0.06500
C3955       C  0.29859534  0.65118073  0.69804795     0.14300
C3956       C  0.28604414  0.65412974  0.68138429    -0.20000
C3957       C  0.28109825  0.63836100  0.66827701    -0.06500
C3958       C  0.28816841  0.61878829  0.67265679     0.14300
C3959       C  0.28387014  0.60126107  0.65901546    -0.23400
H3960       H  0.30640496  0.60090261  0.69256630     0.15600
H3961       H  0.28048731  0.66909044  0.67825106     0.15600
C3962       C  0.30347295  0.66894701  0.71122693    -0.23300
H3963       H  0.29123952  0.58729734  0.66435994     0.05900
H3964       H  0.28961926  0.60450357  0.64372722     0.09100
H3965       H  0.26742782  0.59839106  0.65839193     0.09100
H3966       H  0.31967584  0.67279654  0.71007644     0.09100
H3967       H  0.29960541  0.66544624  0.72702910     0.09100
H3968       H  0.29486444  0.68250574  0.70675022     0.05800
C3969       C  0.41163683  0.54843673  0.56663877    -0.20000
C3970       C  0.39611794  0.53659949  0.57483052    -0.06500
C3971       C  0.37726501  0.53613813  0.56476997     0.14300
C3972       C  0.37394079  0.54898288  0.54830673    -0.20000
C3973       C  0.38895443  0.56212066  0.54140316    -0.06500
C3974       C  0.40840465  0.56094848  0.54999225     0.14300
C3975       C  0.42600293  0.57244690  0.54144737    -0.23400
H3976       H  0.42638699  0.54831961  0.57357078     0.15600
H3977       H  0.35920136  0.54941705  0.54137223     0.15600
C3978       C  0.36044792  0.52237676  0.57120532    -0.23300
H3979       H  0.44036715  0.56828659  0.54888261     0.05900
H3980       H  0.42393999  0.58880757  0.54358735     0.09100
H3981       H  0.42752456  0.56903534  0.52522084     0.09100
H3982       H  0.35519679  0.52650905  0.58642642     0.09100
H3983       H  0.36575528  0.50657470  0.57107635     0.09100
H3984       H  0.34729220  0.52334860  0.56096954     0.05800
C3985       C  0.46988096  0.45733057  0.62997019    -0.20000
C3986       C  0.45392802  0.46165563  0.61683742    -0.06500
C3987       C  0.45184185  0.45010403  0.59911933     0.14300
C3988       C  0.46536682  0.43441570  0.59531723    -0.20000
C3989       C  0.48089643  0.42945764  0.60877973    -0.06500
C3990       C  0.48323024  0.44128522  0.62634493     0.14300
C3991       C  0.49957144  0.43717289  0.64145226    -0.23400
H3992       H  0.47151593  0.46615847  0.64352146     0.15600
H3993       H  0.46341006  0.42562630  0.58179023     0.15600
C3994       C  0.43559951  0.45430402  0.58384933    -0.23300
H3995       H  0.49944100  0.44824481  0.65389832     0.05900
H3996       H  0.51451857  0.43805734  0.63409368     0.09100
H3997       H  0.49738593  0.42206845  0.64814207     0.09100
H3998       H  0.43637571  0.47024653  0.57904150     0.09100
H3999       H  0.42056905  0.45101153  0.59028843     0.09100
H4000       H  0.43723571  0.44481181  0.57026464     0.05800
C4001       C  0.39872139  0.57698523  0.66603154    -0.20000
C4002       C  0.40647568  0.55854829  0.67269322    -0.06500
C4003       C  0.40909569  0.55541489  0.69347185     0.14300
C4004       C  0.40272330  0.57021354  0.70704881    -0.20000
C4005       C  0.39370379  0.58814914  0.70051542    -0.06500
C4006       C  0.39248105  0.59192080  0.67962093     0.14300
C4007       C  0.38359051  0.61104152  0.67144447    -0.23400
H4008       H  0.39676133  0.57936516  0.65006612     0.15600
H4009       H  0.40386482  0.56727099  0.72298925     0.15600
C4010       C  0.41718822  0.53588534  0.70151131    -0.23300
H4011       H  0.38377289  0.61133077  0.65479641     0.05900
H4012       H  0.39246917  0.62411310  0.67683158     0.09100
H4013       H  0.36770864  0.61251985  0.67634888     0.09100
H4014       H  0.43275528  0.53353976  0.69600976     0.09100
H4015       H  0.40747486  0.52324265  0.69652707     0.09100
H4016       H  0.41762960  0.53573608  0.71815475     0.05800
C4017       C  0.37976154  0.48075136  0.92347152    -0.20000
C4018       C  0.39858358  0.47910955  0.91397929    -0.06500
C4019       C  0.41268140  0.46503510  0.92156498     0.14300
C4020       C  0.40720720  0.45259826  0.93762448    -0.20000
C4021       C  0.38821461  0.45382081  0.94673852    -0.06500
C4022       C  0.37446963  0.46851326  0.93985993     0.14300
C4023       C  0.35405397  0.47113784  0.94926954    -0.23400
H4024       H  0.36899325  0.49163281  0.91794455     0.15600
H4025       H  0.41791450  0.44158684  0.94301220     0.15600
C4026       C  0.43339726  0.46246120  0.91270411    -0.23300
H4027       H  0.34522712  0.48312527  0.94175084     0.05900
H4028       H  0.35580368  0.47545337  0.96524775     0.09100
H4029       H  0.34534005  0.45694860  0.94814337     0.09100
H4030       H  0.44210224  0.47661471  0.91429797     0.09100
H4031       H  0.43218641  0.45822656  0.89665746     0.09100
H4032       H  0.44207928  0.45047919  0.92039873     0.05800
C4033       C  0.46870834  0.56623290  0.85902221    -0.20000
C4034       C  0.45650131  0.55865622  0.87443591    -0.06500
C4035       C  0.45773340  0.56752521  0.89367899     0.14300
C4036       C  0.47045081  0.58412300  0.89672248    -0.20000
C4037       C  0.48187636  0.59252548  0.88106415    -0.06500
C4038       C  0.48114117  0.58316993  0.86194125     0.14300
C4039       C  0.49269876  0.59123970  0.84427202    -0.23400
H4040       H  0.46779418  0.55942278  0.84428959     0.15600
H4041       H  0.47110588  0.59084960  0.91149270     0.15600
C4042       C  0.44590165  0.55949748  0.91123555    -0.23300
H4043       H  0.48995225  0.58226624  0.83049741     0.05900
H4044       H  0.50908320  0.59077119  0.84745381     0.09100
H4045       H  0.48797616  0.60690218  0.84110270     0.09100
H4046       H  0.44914714  0.54328467  0.91331479     0.09100
H4047       H  0.42955517  0.56168375  0.90871539     0.09100
H4048       H  0.44983632  0.56735413  0.92539917     0.05800
C4049       C  0.36138710  0.54572552  0.80683996    -0.20000
C4050       C  0.37043638  0.55258566  0.82462044    -0.06500
C4051       C  0.37120315  0.57347093  0.82838517     0.14300
C4052       C  0.36455918  0.58693624  0.81354773    -0.20000
C4053       C  0.35685356  0.58010421  0.79513975    -0.06500
C4054       C  0.35437111  0.55920530  0.79215436     0.14300
C4055       C  0.34572314  0.55097010  0.77294599    -0.23400
H4056       H  0.36072599  0.52971902  0.80399479     0.15600
H4057       H  0.36633744  0.60293986  0.81591874     0.15600
C4058       C  0.38043051  0.58170603  0.84733684    -0.23300
H4059       H  0.34529310  0.53430191  0.77297030     0.05900
H4060       H  0.35504058  0.55586676  0.76002974     0.09100
H4061       H  0.33007219  0.55643009  0.77097744     0.09100
H4062       H  0.39632536  0.57674727  0.84862398     0.09100
H4063       H  0.37180071  0.57629891  0.86051694     0.09100
H4064       H  0.38026926  0.59837414  0.84759435     0.05800
C4065       C  0.38924286  0.33473774  0.71831171    -0.20000
C4066       C  0.37064787  0.34467658  0.71674257    -0.06500
C4067       C  0.35632494  0.33734403  0.70267340     0.14300
C4068       C  0.36132873  0.32097568  0.69032782    -0.20000
C4069       C  0.38013822  0.31142285  0.69151932    -0.06500
C4070       C  0.39415281  0.31827087  0.70603127     0.14300
C4071       C  0.41461271  0.30884536  0.70832342    -0.23400
H4072       H  0.40025912  0.34008047  0.72905544     0.15600
H4073       H  0.35045267  0.31574029  0.67937753     0.15600
C4074       C  0.33580171  0.34667393  0.70014837    -0.23300
H4075       H  0.42374184  0.31642908  0.72006086     0.05900
H4076       H  0.42300673  0.30992424  0.69398851     0.09100
H4077       H  0.41295660  0.29286842  0.71276005     0.09100
H4078       H  0.33734949  0.36254527  0.69529770     0.09100
H4079       H  0.32737372  0.34583286  0.71448194     0.09100
H4080       H  0.32666922  0.33879020  0.68861462     0.05800
C4081       C  0.31629136  0.36665688  0.80584268    -0.20000
C4082       C  0.31355970  0.38476240  0.79542037    -0.06500
C4083       C  0.29727940  0.39732200  0.80091116     0.14300
C4084       C  0.28481052  0.39173374  0.81708567    -0.20000
C4085       C  0.28793608  0.37381336  0.82783771    -0.06500
C4086       C  0.30383825  0.36097137  0.82181515     0.14300
C4087       C  0.30844189  0.34146913  0.83237699    -0.23400
H4088       H  0.32856356  0.35684647  0.80161665     0.15600
H4089       H  0.27264640  0.40158706  0.82150197     0.15600
C4090       C  0.29320329  0.41684869  0.79027501    -0.23300
H4091       H  0.32172917  0.33378210  0.82586618     0.05900
H4092       H  0.29547520  0.33103213  0.83094700     0.09100
H4093       H  0.31181037  0.34435929  0.84842563     0.09100
H4094       H  0.28977184  0.41391912  0.77425110     0.09100
H4095       H  0.30651285  0.42687692  0.79150586     0.09100
H4096       H  0.28011865  0.42486047  0.79680341     0.05800
C4097       C  0.36569823  0.43365895  0.68208511    -0.20000
C4098       C  0.36118330  0.44076624  0.70137979    -0.06500
C4099       C  0.36164395  0.46163771  0.70513532     0.14300
C4100       C  0.36772893  0.47475935  0.68982828    -0.20000
C4101       C  0.37330669  0.46757624  0.67086589    -0.06500
C4102       C  0.37170775  0.44682248  0.66673129     0.14300
C4103       C  0.37777556  0.43834408  0.64669867    -0.23400
H4104       H  0.36547239  0.41761327  0.67931208     0.15600
H4105       H  0.36914574  0.49067402  0.69297902     0.15600
C4106       C  0.35731497  0.47002628  0.72566039    -0.23300
H4107       H  0.37609523  0.42175166  0.64623699     0.05900
H4108       H  0.39377748  0.44203308  0.64359890     0.09100
H4109       H  0.36814291  0.44478426  0.63472833     0.09100
H4110       H  0.36790734  0.46352916  0.73678665     0.09100
H4111       H  0.34162365  0.46636892  0.73002942     0.09100
H4112       H  0.35903691  0.48661128  0.72607542     0.05800
C4113       C  0.40760355  0.45283243  0.78386658    -0.20000
C4114       C  0.40149251  0.43380186  0.79058932    -0.06500
C4115       C  0.40402192  0.42880559  0.81103341     0.14300
C4116       C  0.41052130  0.44370805  0.82453384    -0.20000
C4117       C  0.41480647  0.46332770  0.81802366    -0.06500
C4118       C  0.41432970  0.46763310  0.79728210     0.14300
C4119       C  0.41917176  0.48826966  0.78933398    -0.23400
H4120       H  0.40585073  0.45656067  0.76814427     0.15600
H4121       H  0.41105595  0.44038835  0.84043589     0.15600
C4122       C  0.39842035  0.40836236  0.81894076    -0.23300
H4123       H  0.41759024  0.48904413  0.77277811     0.05900
H4124       H  0.43494303  0.49225762  0.79315581     0.09100
H4125       H  0.40878458  0.49949286  0.79594049     0.09100
H4126       H  0.40770409  0.39673601  0.81146297     0.09100
H4127       H  0.38224520  0.40531289  0.81604211     0.09100
H4128       H  0.40103424  0.40718204  0.83534730     0.05800
C4129       C  0.93543640  0.38358821  0.47458965    -0.20000
C4130       C  0.92450429  0.40120643  0.47050169    -0.06500
C4131       C  0.93078109  0.41360657  0.45435978     0.14300
C4132       C  0.94759073  0.40805512  0.44299361    -0.20000
C4133       C  0.95846016  0.39046249  0.44701532    -0.06500
C4134       C  0.95226542  0.37802838  0.46306884     0.14300
C4135       C  0.96273489  0.35853095  0.46770054    -0.23400
H4136       H  0.93068211  0.37394603  0.48677946     0.15600
H4137       H  0.95221217  0.41756188  0.43064386     0.15600
C4138       C  0.91973204  0.43248079  0.44843260    -0.23300
H4139       H  0.95535335  0.35035782  0.48021126     0.05900
H4140       H  0.97855088  0.36149397  0.47217326     0.09100
H4141       H  0.96241103  0.34863135  0.45430903     0.09100
H4142       H  0.92035464  0.44356914  0.46083427     0.09100
H4143       H  0.90384932  0.42885218  0.44467526     0.09100
H4144       H  0.92649571  0.43975083  0.43505246     0.05800
C4145       C  0.87257006  0.47675821  0.55189000    -0.20000
C4146       C  0.88706210  0.46266335  0.54594370    -0.06500
C4147       C  0.90612408  0.46285578  0.55544002     0.14300
C4148       C  0.90938175  0.47557660  0.57187494    -0.20000
C4149       C  0.89420315  0.48827791  0.57921430    -0.06500
C4150       C  0.87585279  0.48959154  0.56836657     0.14300
C4151       C  0.85949883  0.50414830  0.57404439    -0.23400
H4152       H  0.85818908  0.47706571  0.54422425     0.15600
H4153       H  0.92380782  0.47504452  0.57943359     0.15600
C4154       C  0.92327586  0.44990166  0.54828474    -0.23300
H4155       H  0.84667943  0.50361458  0.56335649     0.05900
H4156       H  0.86555962  0.51970164  0.57395493     0.09100
H4157       H  0.85351742  0.50042392  0.58911058     0.09100
H4158       H  0.92586260  0.45248349  0.53204536     0.09100
H4159       H  0.91992096  0.43382448  0.55100498     0.09100
H4160       H  0.93752011  0.45342389  0.55629430     0.05800
C4161       C  0.78688039  0.39156768  0.67216798    -0.20000
C4162       C  0.78873670  0.37253994  0.66314041    -0.06500
C4163       C  0.80359630  0.35917368  0.67066574     0.14300
C4164       C  0.81605409  0.36525509  0.68653424    -0.20000
C4165       C  0.81421971  0.38417080  0.69555072    -0.06500
C4166       C  0.79926544  0.39749114  0.68833877     0.14300
C4167       C  0.79656676  0.41811832  0.69718323    -0.23400
H4168       H  0.77569527  0.40194654  0.66651593     0.15600
H4169       H  0.82743911  0.35499587  0.69201247     0.15600
C4170       C  0.80688940  0.33845988  0.66211046    -0.23300
H4171       H  0.78466564  0.42673322  0.68927714     0.05900
H4172       H  0.81083659  0.42673844  0.69601983     0.09100
H4173       H  0.79206772  0.41684088  0.71314592     0.09100
H4174       H  0.81102926  0.33954967  0.64603049     0.09100
H4175       H  0.79306211  0.32926178  0.66395063     0.09100
H4176       H  0.81926680  0.33037048  0.66983768     0.05800
C4177       C  0.70727144  0.30425232  0.64393628    -0.20000
C4178       C  0.71438935  0.30598450  0.62422491    -0.06500
C4179       C  0.70547312  0.29403911  0.60908995     0.14300
C4180       C  0.68895292  0.28164319  0.61384205    -0.20000
C4181       C  0.68088581  0.28092404  0.63332538    -0.06500
C4182       C  0.69078522  0.29189338  0.64876149     0.14300
C4183       C  0.68408837  0.29107047  0.67034973    -0.23400
H4184       H  0.71428289  0.31321781  0.65558895     0.15600
H4185       H  0.68171892  0.27317643  0.60197758     0.15600
C4186       C  0.71243988  0.29522343  0.58764791    -0.23300
H4187       H  0.69445157  0.29951079  0.68036411     0.05900
H4188       H  0.68376658  0.27524780  0.67559313     0.09100
H4189       H  0.66897917  0.29793586  0.67194618     0.09100
H4190       H  0.72835465  0.29032435  0.58660859     0.09100
H4191       H  0.71105317  0.31087895  0.58209611     0.09100
H4192       H  0.70336115  0.28540330  0.57765593     0.05800
C4193       C  0.80356284  0.35818853  0.55067356    -0.20000
C4194       C  0.80670087  0.36141012  0.57122480    -0.06500
C4195       C  0.82488948  0.37046521  0.57773982     0.14300
C4196       C  0.83903649  0.37680042  0.56346745    -0.20000
C4197       C  0.83487693  0.37546657  0.54294199    -0.06500
C4198       C  0.81716572  0.36566731  0.53640308     0.14300
C4199       C  0.81229822  0.36361592  0.51442120    -0.23400
H4200       H  0.78962017  0.35132364  0.54570005     0.15600
H4201       H  0.85260389  0.38445089  0.56834661     0.15600
C4202       C  0.82923716  0.37414119  0.59963283    -0.23300
H4203       H  0.79816661  0.35501932  0.51196459     0.05900
H4204       H  0.82469287  0.35561801  0.50668570     0.09100
H4205       H  0.81030820  0.37864816  0.50755773     0.09100
H4206       H  0.82786810  0.35988386  0.60813181     0.09100
H4207       H  0.81861360  0.38537799  0.60579228     0.09100
H4208       H  0.84468133  0.38011937  0.60197709     0.05800
C4209       C  0.58123194  0.41276492  0.53161174    -0.20000
C4210       C  0.58901763  0.39675858  0.52028060    -0.06500
C4211       C  0.57925807  0.37779662  0.52132338     0.14300
C4212       C  0.56272422  0.37531931  0.53426469    -0.20000
C4213       C  0.55581416  0.39111033  0.54636024    -0.06500
C4214       C  0.56491456  0.41020939  0.54463676     0.14300
C4215       C  0.55739821  0.42811800  0.55623812    -0.23400
H4216       H  0.58824918  0.42742337  0.53067954     0.15600
H4217       H  0.55569971  0.36067717  0.53561370     0.15600
C4218       C  0.58630890  0.35992888  0.50940677    -0.23300
H4219       H  0.56531955  0.44214038  0.55183698     0.05900
H4220       H  0.55998727  0.42594396  0.57251325     0.09100
H4221       H  0.54109193  0.43027492  0.55331993     0.09100
H4222       H  0.60198320  0.35607651  0.51366571     0.09100
H4223       H  0.58550172  0.36334371  0.49314277     0.09100
H4224       H  0.57683041  0.34645251  0.51218568     0.05800
C4225       C  0.64928795  0.47102736  0.44138978    -0.20000
C4226       C  0.63340389  0.45887226  0.44815153    -0.06500
C4227       C  0.61412129  0.46129206  0.43952623     0.14300
C4228       C  0.61148774  0.47486325  0.42365710    -0.20000
C4229       C  0.62760286  0.48614610  0.41585091    -0.06500
C4230       C  0.64672357  0.48453525  0.42528655     0.14300
C4231       C  0.66458333  0.49672572  0.41850107    -0.23400
H4232       H  0.66401988  0.46928796  0.44815361     0.15600
H4233       H  0.59670278  0.47618983  0.41694492     0.15600
C4234       C  0.59609027  0.44982933  0.44717434    -0.23300
H4235       H  0.67798479  0.49407547  0.42810015     0.05900
H4236       H  0.66095805  0.51297260  0.41927065     0.09100
H4237       H  0.66871468  0.49255492  0.40294135     0.09100
H4238       H  0.59433493  0.45244469  0.46351748     0.09100
H4239       H  0.59788773  0.43354377  0.44427279     0.09100
H4240       H  0.58197174  0.45465125  0.43968030     0.05800
C4241       C  0.67843044  0.39319309  0.55821161    -0.20000
C4242       C  0.68572131  0.40263892  0.54082271    -0.06500
C4243       C  0.70663720  0.40628263  0.53902033     0.14300
C4244       C  0.71971135  0.39958558  0.55419673    -0.20000
C4245       C  0.71243616  0.38961957  0.57126133    -0.06500
C4246       C  0.69149999  0.38671555  0.57347302     0.14300
C4247       C  0.68299991  0.37561693  0.59124759    -0.23400
H4248       H  0.66243537  0.39026579  0.55955881     0.15600
H4249       H  0.73581874  0.40155090  0.55244310     0.15600
C4250       C  0.71542679  0.41606056  0.52062780    -0.23300
H4251       H  0.66638234  0.37408566  0.59027443     0.05900
H4252       H  0.68660654  0.38388768  0.60524090     0.09100
H4253       H  0.68952875  0.36029747  0.59202989     0.09100
H4254       H  0.70951864  0.43155614  0.51909834     0.09100
H4255       H  0.71144519  0.40718805  0.50709359     0.09100
H4256       H  0.73209463  0.41705136  0.52145197     0.05800
C4257       C  0.72598965  0.36237788  0.31760168    -0.20000
C4258       C  0.73591315  0.37849966  0.32703992    -0.06500
C4259       C  0.73375033  0.39804627  0.31882215     0.14300
C4260       C  0.72089085  0.40092666  0.30228507    -0.20000
C4261       C  0.70990912  0.38495197  0.29394375    -0.06500
C4262       C  0.71296640  0.36532710  0.30134844     0.14300
C4263       C  0.70273327  0.34731819  0.29211588    -0.23400
H4264       H  0.72784755  0.34729346  0.32337520     0.15600
H4265       H  0.71864864  0.41594203  0.29643017     0.15600
C4266       C  0.74448325  0.41604492  0.32743932    -0.23300
H4267       H  0.70806915  0.33303631  0.29886062     0.05900
H4268       H  0.70598780  0.34677336  0.27580778     0.09100
H4269       H  0.68624970  0.34807738  0.29453512     0.09100
H4270       H  0.76098789  0.41351177  0.32719112     0.09100
H4271       H  0.73937811  0.41876535  0.34303093     0.09100
H4272       H  0.74137716  0.42989405  0.31869755     0.05800
C4273       C  0.81209988  0.30167444  0.38433986    -0.20000
C4274       C  0.80852209  0.31737056  0.37076988    -0.06500
C4275       C  0.82063963  0.31897517  0.35343938     0.14300
C4276       C  0.83642060  0.30538160  0.35054938    -0.20000
C4277       C  0.84086898  0.29026954  0.36460115    -0.06500
C4278       C  0.82827092  0.28826705  0.38167782     0.14300
C4279       C  0.83187875  0.27247053  0.39742757    -0.23400
H4280       H  0.80272765  0.30043938  0.39756268     0.15600
H4281       H  0.84567628  0.30696805  0.33729114     0.15600
C4282       C  0.81694554  0.33482572  0.33768308    -0.23300
H4283       H  0.82047651  0.27311465  0.40956584     0.05900
H4284       H  0.84687441  0.27478120  0.40442287     0.09100
H4285       H  0.83104207  0.25731127  0.39056811     0.09100
H4286       H  0.82011349  0.34997176  0.34384982     0.09100
H4287       H  0.80110175  0.33399937  0.33242865     0.09100
H4288       H  0.82684317  0.33281902  0.32444095     0.05800
C4289       C  0.69338214  0.36996566  0.41431773    -0.20000
C4290       C  0.71135661  0.36149912  0.42151589    -0.06500
C4291       C  0.71317374  0.35706158  0.44218507     0.14300
C4292       C  0.69777363  0.36292042  0.45528846    -0.20000
C4293       C  0.68056852  0.37278819  0.44822725    -0.06500
C4294       C  0.67792032  0.37563950  0.42744258     0.14300
C4295       C  0.65958110  0.38610826  0.41924358    -0.23400
H4296       H  0.69192660  0.37323705  0.39846276     0.15600
H4297       H  0.69968280  0.36087055  0.47130454     0.15600
C4298       C  0.73187028  0.34761516  0.45079769    -0.23300
H4299       H  0.66014060  0.38747545  0.40266242     0.05900
H4300       H  0.65849116  0.40146451  0.42563333     0.09100
H4301       H  0.64586427  0.37745205  0.42321836     0.09100
H4302       H  0.74515544  0.35725003  0.44767042     0.09100
H4303       H  0.73412289  0.33253979  0.44408791     0.09100
H4304       H  0.73079277  0.34567956  0.46729774     0.05800
C4305       C  0.79486768  0.40814903  0.44112381    -0.20000
C4306       C  0.80245154  0.40131825  0.42271865    -0.06500
C4307       C  0.82338680  0.40234734  0.41910796     0.14300
C4308       C  0.83630759  0.40833374  0.43467732    -0.20000
C4309       C  0.82881508  0.41390429  0.45353030    -0.06500
C4310       C  0.80776891  0.41473379  0.45649248     0.14300
C4311       C  0.79885584  0.42130958  0.47617038    -0.23400
H4312       H  0.77878513  0.40752967  0.44377569     0.15600
H4313       H  0.85245273  0.40790567  0.43238479     0.15600
C4314       C  0.83232179  0.39596893  0.39936604    -0.23300
H4315       H  0.78215131  0.42063037  0.47595216     0.05900
H4316       H  0.80331522  0.43706372  0.47934075     0.09100
H4317       H  0.80425609  0.41143493  0.48843471     0.09100
H4318       H  0.82639772  0.40564909  0.38717474     0.09100
H4319       H  0.82845019  0.38005344  0.39623253     0.09100
H4320       H  0.84898300  0.39736145  0.39935280     0.05800
loop_ 
_geom_bond_atom_site_label_1 
_geom_bond_atom_site_label_2 
_geom_bond_distance 
_geom_bond_site_symmetry_2 
_ccdc_geom_bond_type 
O1            C4   1.268       .  A
O1           Cd6   2.485       .  S
C2           O11   1.263       .  A
C2            O7   1.267       .  A
C2         C4306   1.479       .  S
O3            C9   1.269       .  A
O3           Cd6   2.477       .  S
C4           O12   1.266       .  A
C4         C4258   1.492       .  S
C5           O10   1.269       .  A
C5            O8   1.262       .  A
C5         C4274   1.482       .  S
Cd6          O13   2.430       .  S
Cd6          O12   2.427       .  S
Cd6          O11   2.443       .  S
Cd6           O7   2.491       .  S
Cd6          O10   2.511       .  S
Cd6           O8   2.415       .  S
C9           O13   1.265       .  A
C9         C4290   1.480       .  S
O14          C17   1.267       .  A
O14         Cd19   2.493       .  S
C15          O24   1.267       .  A
C15          O20   1.269       .  A
C15        C4210   1.492       .  S
O16          C22   1.270       .  A
O16         Cd19   2.490       .  S
C17          O25   1.262       .  A
C17        C4293   1.470       .  S
C18          O23   1.269       .  A
C18          O21   1.262       .  A
C18        C4226   1.486       .  S
Cd19         O26   2.444       .  S
Cd19         O25   2.416       .  S
Cd19         O24   2.425       .  S
Cd19         O20   2.487       .  S
Cd19         O23   2.525       .  S
Cd19         O21   2.437       .  S
C22          O26   1.266       .  A
C22        C4242   1.485       .  S
O27          C30   1.269       .  A
O27         Cd32   2.503       .  S
C28          O37   1.265       .  A
C28          O33   1.272       .  A
C28        C4162   1.498       .  S
O29          C35   1.270       .  A
O29         Cd32   2.510       .  S
C30          O38   1.261       .  A
C30        C4245   1.480       .  S
C31          O36   1.272       .  A
C31          O34   1.263       .  A
C31        C4194   1.478       .  S
Cd32         O39   2.452       .  S
Cd32         O38   2.444       .  S
Cd32         O37   2.417       .  S
Cd32         O33   2.508       .  S
Cd32         O36   2.496       .  S
Cd32         O34   2.409       .  S
C35          O39   1.265       .  A
C35        C4178   1.489       .  S
O40          C43   1.267       .  A
O40         Cd45   2.500       .  S
C41          O50   1.265       .  A
C41          O46   1.270       .  A
C41        C4130   1.491       .  S
O42          C48   1.269       .  A
O42         Cd45   2.491       .  S
C43          O51   1.261       .  A
C43        C4197   1.472       .  S
C44          O49   1.268       .  A
C44          O47   1.262       .  A
C44        C4146   1.487       .  S
Cd45         O52   2.429       .  S
Cd45         O51   2.426       .  S
Cd45         O50   2.426       .  S
Cd45         O46   2.480       .  S
Cd45         O49   2.512       .  S
Cd45         O47   2.438       .  S
C48          O52   1.265       .  A
C48        C4309   1.480       .  S
O53          C56   1.271       .  A
O53         Cd58   2.484       .  S
C54          O63   1.262       .  A
C54          O59   1.268       .  A
C54        C4114   1.482       .  S
O55          C61   1.270       .  A
O55         Cd58   2.484       .  S
C56          O64   1.265       .  A
C56        C4066   1.498       .  S
C57          O62   1.268       .  A
C57          O60   1.264       .  A
C57        C4082   1.493       .  S
Cd58         O65   2.433       .  S
Cd58         O64   2.447       .  S
Cd58         O63   2.434       .  S
Cd58         O59   2.521       .  S
Cd58         O62   2.515       .  S
Cd58         O60   2.435       .  S
C61          O65   1.265       .  A
C61        C4098   1.478       .  S
O66          C69   1.267       .  A
O66         Cd71   2.513       .  S
C67          O76   1.265       .  A
C67          O72   1.270       .  A
C67        C4018   1.492       .  S
O68          C74   1.270       .  A
O68         Cd71   2.488       .  S
C69          O77   1.262       .  A
C69        C4050   1.486       .  S
C70          O75   1.269       .  A
C70          O73   1.263       .  A
C70        C4034   1.488       .  S
Cd71         O78   2.438       .  S
Cd71         O77   2.466       .  S
Cd71         O76   2.445       .  S
Cd71         O72   2.482       .  S
Cd71         O75   2.512       .  S
Cd71         O73   2.447       .  S
C74          O78   1.265       .  A
C74        C4117   1.481       .  S
O79          C82   1.269       .  A
O79         Cd84   2.505       .  S
C80          O89   1.268       .  A
C80          O85   1.269       .  A
C80        C3970   1.498       .  S
O81          C87   1.271       .  A
O81         Cd84   2.500       .  S
C82          O90   1.263       .  A
C82        C4101   1.478       .  S
C83          O88   1.271       .  A
C83          O86   1.262       .  A
C83        C3986   1.490       .  S
Cd84         O91   2.448       .  S
Cd84         O90   2.428       .  S
Cd84         O89   2.459       .  S
Cd84         O85   2.482       .  S
Cd84         O88   2.521       .  S
Cd84         O86   2.428       .  S
C87          O91   1.266       .  A
C87        C4002   1.485       .  S
O92          C95   1.271       .  A
O92         Cd97   2.497       .  S
C93         O102   1.261       .  A
C93          O98   1.266       .  A
C93        C4005   1.492       .  S
O94         C100   1.270       .  A
O94         Cd97   2.507       .  S
C95         O103   1.266       .  A
C95        C3938   1.499       .  S
C96         O101   1.268       .  A
C96          O99   1.261       .  A
C96        C3954   1.486       .  S
Cd97        O104   2.450       .  S
Cd97        O103   2.450       .  S
Cd97        O102   2.455       .  S
Cd97         O98   2.526       .  S
Cd97        O101   2.511       .  S
Cd97         O99   2.442       .  S
C100        O104   1.265       .  A
C100       C4053   1.488       .  S
O105        C108   1.271       .  A
O105       Cd110   2.508       .  S
C106        O115   1.262       .  A
C106        O111   1.269       .  A
C106       C3922   1.475       .  S
O107        C113   1.270       .  A
O107       Cd110   2.526       .  S
C108        O116   1.265       .  A
C108       C3874   1.499       .  S
C109        O114   1.273       .  A
C109        O112   1.265       .  A
C109       C3906   1.498       .  S
Cd110       O117   2.444       .  S
Cd110       O116   2.428       .  S
Cd110       O115   2.426       .  S
Cd110       O111   2.509       .  S
Cd110       O114   2.521       .  S
Cd110       O112   2.413       .  S
C113        O117   1.265       .  A
C113       C3893   1.492       .  S
O118        C121   1.270       .  A
O118       Cd123   2.507       .  S
C119        O128   1.263       .  A
C119        O124   1.272       .  A
C119       C3909   1.483       .  S
O120        C126   1.269       .  A
O120       Cd123   2.501       .  S
C121        O129   1.266       .  A
C121       C3826   1.498       .  S
C122        O127   1.269       .  A
C122        O125   1.266       .  A
C122       C3842   1.485       .  S
Cd123       O130   2.397       .  S
Cd123       O129   2.440       .  S
Cd123       O128   2.411       .  S
Cd123       O124   2.530       .  S
Cd123       O127   2.500       .  S
Cd123       O125   2.418       .  S
C126        O130   1.264       .  A
C126       C3858   1.472       .  S
O131        C134   1.273       .  A
O131       Cd136   2.476       .  S
C132        O141   1.263       .  A
C132        O137   1.272       .  A
C132       C3861   1.484       .  S
O133        C139   1.271       .  A
O133       Cd136   2.492       .  S
C134        O142   1.266       .  A
C134       C3778   1.494       .  S
C135        O140   1.271       .  A
C135        O138   1.265       .  A
C135       C3810   1.480       .  S
Cd136       O143   2.428       .  S
Cd136       O142   2.427       .  S
Cd136       O141   2.375       .  S
Cd136       O137   2.529       .  S
Cd136       O140   2.492       .  S
Cd136       O138   2.436       .  S
C139        O143   1.266       .  A
C139       C3794   1.490       .  S
O144        C147   1.269       .  A
O144       Cd149   2.487       .  S
C145        O154   1.262       .  A
C145        O150   1.267       .  A
C145       C3813   1.483       .  S
O146        C152   1.271       .  A
O146       Cd149   2.506       .  S
C147        O155   1.268       .  A
C147       C3749   1.498       .  S
C148        O153   1.270       .  A
C148        O151   1.263       .  A
C148       C3762   1.489       .  S
Cd149       O156   2.423       .  S
Cd149       O155   2.450       .  S
Cd149       O154   2.448       .  S
Cd149       O150   2.502       .  S
Cd149       O153   2.524       .  S
Cd149       O151   2.444       .  S
C152        O156   1.263       .  A
C152       C3925   1.482       .  S
O157        C160   1.269       .  A
O157       Cd162   2.493       .  S
C158        O167   1.261       .  A
C158        O163   1.267       .  A
C158       C3733   1.471       .  S
O159        C165   1.268       .  A
O159       Cd162   2.516       .  S
C160        O168   1.266       .  A
C160       C3685   1.485       .  S
C161        O166   1.269       .  A
C161        O164   1.265       .  A
C161       C3717   1.485       .  S
Cd162       O169   2.445       .  S
Cd162       O168   2.419       .  S
Cd162       O167   2.417       .  S
Cd162       O163   2.482       .  S
Cd162       O166   2.496       .  S
Cd162       O164   2.445       .  S
C165        O169   1.263       .  A
C165       C3698   1.485       .  S
O170        C173   1.271       .  A
O170       Cd175   2.498       .  S
C171        O180   1.261       .  A
C171        O176   1.266       .  A
C171       C3666   1.486       .  S
O172        C178   1.271       .  A
O172       Cd175   2.482       .  S
C173        O181   1.265       .  A
C173       C3634   1.490       .  S
C174        O179   1.269       .  A
C174        O177   1.261       .  A
C174       C3650   1.488       .  S
Cd175       O182   2.424       .  S
Cd175       O181   2.431       .  S
Cd175       O180   2.456   1_455  S
Cd175       O176   2.509   1_455  S
Cd175       O179   2.526   1_455  S
Cd175       O177   2.426   1_455  S
C178        O182   1.264       .  A
C178       C3730   1.478       .  S
O183        C186   1.271       .  A
O183       Cd188   2.504       .  S
C184        O193   1.261       .  A
C184        O189   1.267       .  A
C184       C3621   1.480       .  S
O185        C191   1.268       .  A
O185       Cd188   2.505       .  S
C186        O194   1.265       .  A
C186       C3586   1.486       .  S
C187        O192   1.270       .  A
C187        O190   1.266       .  A
C187       C3669   1.485       .  S
Cd188       O195   2.431       .  S
Cd188       O194   2.421       .  S
Cd188       O193   2.435       .  S
Cd188       O189   2.515       .  S
Cd188       O192   2.499       .  S
Cd188       O190   2.446       .  S
C191        O195   1.264       .  A
C191       C3602   1.486       .  S
O196        C199   1.270   1_455  A
O196       Cd201   2.495       .  S
C197        O206   1.262       .  A
C197        O202   1.268       .  A
C197       C3714   1.487       .  S
O198        C204   1.271       .  A
O198       Cd201   2.488   1_655  S
C199        O207   1.266       .  A
C199       C3554   1.496       .  S
C200        O205   1.269       .  A
C200        O203   1.264       .  A
C200       C3570   1.493       .  S
Cd201       O208   2.434   1_455  S
Cd201       O207   2.448   1_455  S
Cd201       O206   2.435       .  S
Cd201       O202   2.526       .  S
Cd201       O205   2.503       .  S
Cd201       O203   2.428       .  S
C204        O208   1.265       .  A
C204       C3618   1.483       .  S
O209        C212   1.271       .  A
O209       Cd214   2.501       .  S
C210        O219   1.260       .  A
C210        O215   1.268       .  A
C210       C3538   1.477       .  S
O211        C217   1.268       .  A
O211       Cd214   2.510       .  S
C212        O220   1.267       .  A
C212       C3506   1.498       .  S
C213        O218   1.271       .  A
C213        O216   1.265       .  A
C213       C3522   1.481       .  S
Cd214       O221   2.467       .  S
Cd214       O220   2.439       .  S
Cd214       O219   2.425       .  S
Cd214       O215   2.522       .  S
Cd214       O218   2.504       .  S
Cd214       O216   2.433       .  S
C217        O221   1.264       .  A
C217       C4069   1.496       .  S
O222        C225   1.272       .  A
O222       Cd227   2.481       .  S
C223        O232   1.270       .  A
C223        O228   1.261       .  A
C223       C3525   1.478       .  S
O224        C230   1.271       .  A
O224       Cd227   2.499       .  S
C225        O233   1.266       .  A
C225       C3458   1.493       .  S
C226        O231   1.269       .  A
C226        O229   1.264       .  A
C226       C3477   1.483       .  S
Cd227       O234   2.428       .  S
Cd227       O233   2.434       .  S
Cd227       O232   2.515       .  S
Cd227       O228   2.421       .  S
Cd227       O231   2.486       .  S
Cd227       O229   2.443       .  S
C230        O234   1.266       .  A
C230       C3490   1.485       .  S
O235        C238   1.269       .  A
O235       Cd240   2.511       .  S
C236        O245   1.264       .  A
C236        O241   1.272       .  A
C236       C4181   1.497       .  S
O237        C243   1.271       .  A
O237       Cd240   2.486       .  S
C238        O246   1.262       .  A
C238       C3493   1.481       .  S
C239        O244   1.269       .  A
C239        O242   1.264       .  A
C239       C3429   1.482       .  S
Cd240       O247   2.429       .  S
Cd240       O246   2.445       .  S
Cd240       O245   2.440       .  S
Cd240       O241   2.502       .  S
Cd240       O244   2.513       .  S
Cd240       O242   2.439       .  S
C243        O247   1.267       .  A
C243       C3442   1.492       .  S
O248        C251   1.271       .  A
O248       Cd253   2.498       .  S
C249        O258   1.262       .  A
C249        O254   1.271       .  A
C249       C3445   1.478       .  S
O250        C256   1.268       .  A
O250       Cd253   2.488       .  S
C251        O259   1.267       .  A
C251       C3989   1.498       .  S
C252        O257   1.270       .  A
C252        O255   1.266       .  A
C252       C4213   1.480       .  S
Cd253       O260   2.423       .  S
Cd253       O259   2.439       .  S
Cd253       O258   2.413       .  S
Cd253       O254   2.513       .  S
Cd253       O257   2.470       .  S
Cd253       O255   2.425       .  S
C256        O260   1.264       .  A
C256       C3541   1.472       .  S
O261        C264   1.271       .  A
O261       Cd266   2.501       .  S
C262        O271   1.266       .  A
C262        O267   1.273       .  A
C262       C3362   1.501       .  S
O263        C269   1.271       .  A
O263       Cd266   2.508       .  S
C264        O272   1.264       .  A
C264       C3410   1.487       .  S
C265        O270   1.270       .  A
C265        O268   1.266       .  A
C265       C3378   1.484       .  S
Cd266       O273   2.407       .  S
Cd266       O272   2.421       .  S
Cd266       O271   2.436       .  S
Cd266       O267   2.510       .  S
Cd266       O270   2.493       .  S
Cd266       O268   2.419       .  S
C269        O273   1.266       .  A
C269       C3394   1.484       .  S
O274        C277   1.271   1_545  A
O274       Cd279   2.510       .  S
C275        O284   1.264       .  A
C275        O280   1.271       .  A
C275       C3397   1.472       .  S
O276        C282   1.272       .  A
O276       Cd279   2.524   1_565  S
C277        O285   1.265       .  A
C277       C3317   1.498       .  S
C278        O283   1.271       .  A
C278        O281   1.266       .  A
C278       C3333   1.492       .  S
Cd279       O286   2.418       .  S
Cd279       O285   2.439   1_545  S
Cd279       O284   2.407       .  S
Cd279       O280   2.498       .  S
Cd279       O283   2.505       .  S
Cd279       O281   2.461       .  S
C282        O286   1.262   1_565  A
C282       C3346   1.488       .  S
O287        C290   1.272       .  A
O287       Cd292   2.518       .  S
C288        O297   1.268       .  A
C288        O293   1.271       .  A
C288       C3765   1.502       .  S
O289        C295   1.272       .  A
O289       Cd292   2.518       .  S
C290        O298   1.264       .  A
C290       C3349   1.495       .  S
C291        O296   1.272       .  A
C291        O294   1.266       .  A
C291       C3282   1.487       .  S
Cd292       O299   2.412       .  S
Cd292       O298   2.415       .  S
Cd292       O297   2.454       .  S
Cd292       O293   2.505       .  S
Cd292       O296   2.502       .  S
Cd292       O294   2.421       .  S
C295        O299   1.265       .  A
C295       C3298   1.488       .  S
O300        C303   1.269       .  A
O300       Cd305   2.486       .  S
C301        O310   1.263       .  A
C301        O306   1.271       .  A
C301       C3301   1.476       .  S
O302        C308   1.269       .  A
O302       Cd305   2.498       .  S
C303        O311   1.266       .  A
C303       C3266   1.494       .  S
C304        O309   1.270       .  A
C304        O307   1.267       .  A
C304       C3781   1.487       .  S
Cd305       O312   2.421       .  S
Cd305       O311   2.441       .  S
Cd305       O310   2.408   1_545  S
Cd305       O306   2.509   1_545  S
Cd305       O309   2.484   1_545  S
Cd305       O307   2.436   1_545  S
C308        O312   1.262       .  A
C308       C3413   1.473       .  S
O313        C316   1.266       .  A
O313       Cd318   2.496       .  S
C314        O323   1.267       .  A
C314        O319   1.268       .  A
C314       C3474   1.491       .  S
O315        C321   1.270       .  A
O315       Cd318   2.505       .  S
C316        O324   1.262       .  A
C316       C3250   1.476       .  S
C317        O322   1.269       .  A
C317        O320   1.263       .  A
C317       C3269   1.489       .  S
Cd318       O325   2.423       .  S
Cd318       O324   2.445       .  S
Cd318       O323   2.431       .  S
Cd318       O319   2.474       .  S
Cd318       O322   2.504       .  S
Cd318       O320   2.444       .  S
C321        O325   1.263       .  A
C321       C3234   1.479       .  S
O326        C329   1.268       .  A
O326       Cd331   2.506       .  S
C327        O336   1.268       .  A
C327        O332   1.261       .  A
C327       C3237   1.477       .  S
O328        C334   1.271       .  A
O328       Cd331   2.492       .  S
C329        O337   1.267       .  A
C329       C3205   1.499       .  S
C330        O335   1.268       .  A
C330        O333   1.263       .  A
C330       C3509   1.489       .  S
Cd331       O338   2.421       .  S
Cd331       O337   2.445       .  S
Cd331       O336   2.501       .  S
Cd331       O332   2.439       .  S
Cd331       O335   2.512       .  S
Cd331       O333   2.451       .  S
C334        O338   1.265       .  A
C334       C3218   1.478       .  S
O339        C342   1.266       .  A
O339       Cd344   2.500       .  S
C340        O349   1.267       .  A
C340        O345   1.268       .  A
C340       C3157   1.495       .  S
O341        C347   1.271       .  A
O341       Cd344   2.501       .  S
C342        O350   1.260       .  A
C342       C3221   1.479       .  S
C343        O348   1.270       .  A
C343        O346   1.262       .  A
C343       C3170   1.493       .  S
Cd344       O351   2.422       .  S
Cd344       O350   2.442       .  S
Cd344       O349   2.455       .  S
Cd344       O345   2.484       .  S
Cd344       O348   2.519       .  S
Cd344       O346   2.432       .  S
C347        O351   1.265       .  A
C347       C3186   1.479       .  S
O352        C355   1.270       .  A
O352       Cd357   2.507       .  S
C353        O362   1.260       .  A
C353        O358   1.269       .  A
C353       C3189   1.481       .  S
O354        C360   1.270       .  A
O354       Cd357   2.488       .  S
C355        O363   1.264       .  A
C355       C3381   1.494       .  S
C356        O361   1.269       .  A
C356        O359   1.264       .  A
C356       C3138   1.487       .  S
Cd357       O364   2.411       .  S
Cd357       O363   2.433       .  S
Cd357       O362   2.433       .  S
Cd357       O358   2.508       .  S
Cd357       O361   2.495       .  S
Cd357       O359   2.437       .  S
C360        O364   1.264       .  A
C360       C3253   1.473       .  S
O365        C368   1.272       .  A
O365       Cd370   2.513       .  S
C366        O375   1.260       .  A
C366        O371   1.271       .  A
C366       C3122   1.491       .  S
O367        C373   1.271       .  A
O367       Cd370   2.505       .  S
C368        O376   1.264       .  A
C368       C3090   1.498       .  S
C369        O374   1.270       .  A
C369        O372   1.265       .  A
C369       C3589   1.494       .  S
Cd370       O377   2.445       .  S
Cd370       O376   2.418       .  S
Cd370       O375   2.409       .  S
Cd370       O371   2.527       .  S
Cd370       O374   2.510       .  S
Cd370       O372   2.427       .  S
C373        O377   1.265       .  A
C373       C3106   1.486       .  S
O378        C381   1.272       .  A
O378       Cd383   2.514       .  S
C379        O388   1.266       .  A
C379        O384   1.269   1_554  A
C379       C3653   1.496       .  S
O380        C386   1.268       .  A
O380       Cd383   2.529   1_554  S
C381        O389   1.263       .  A
C381       C3074   1.477       .  S
C382        O387   1.269       .  A
C382        O385   1.266       .  A
C382       C3058   1.495       .  S
Cd383       O390   2.443   1_556  S
Cd383       O389   2.399       .  S
Cd383       O388   2.445   1_556  S
Cd383       O384   2.514       .  S
Cd383       O387   2.507       .  S
Cd383       O385   2.460       .  S
C386        O390   1.262       .  A
C386       C3125   1.486       .  S
O391        C394   1.269       .  A
O391       Cd396   2.523       .  S
C392        O401   1.267       .  A
C392        O397   1.270       .  A
C392       C3013   1.493       .  S
O393        C399   1.270       .  A
O393       Cd396   2.505       .  S
C394        O402   1.263       .  A
C394       C3045   1.481       .  S
C395        O400   1.271       .  A
C395        O398   1.265       .  A
C395       C3077   1.487       .  S
Cd396       O403   2.424       .  S
Cd396       O402   2.432       .  S
Cd396       O401   2.450       .  S
Cd396       O397   2.474       .  S
Cd396       O400   2.509       .  S
Cd396       O398   2.428       .  S
C399        O403   1.263       .  A
C399       C3026   1.486       .  S
O404        C407   1.268       .  A
O404       Cd409   2.526       .  S
C405        O414   1.267       .  A
C405        O410   1.270       .  A
C405       C2978   1.499       .  S
O406        C412   1.270       .  A
O406       Cd409   2.490   1_556  S
C407        O415   1.263       .  A
C407       C3109   1.486       .  S
C408        O413   1.268       .  A
C408        O411   1.264       .  A
C408       C2997   1.493       .  S
Cd409       O416   2.459   1_554  S
Cd409       O415   2.458       .  S
Cd409       O414   2.447   1_554  S
Cd409       O410   2.507   1_554  S
Cd409       O413   2.523       .  S
Cd409       O411   2.443       .  S
C412        O416   1.266       .  A
C412       C3042   1.485       .  S
O417        C420   1.268       .  A
O417       Cd422   2.515       .  S
C418        O427   1.267       .  A
C418        O423   1.269       .  A
C418       C2930   1.498       .  S
O419        C425   1.270       .  A
O419       Cd422   2.487       .  S
C420        O428   1.261       .  A
C420       C2965   1.483       .  S
C421        O426   1.269       .  A
C421        O424   1.262       .  A
C421       C3202   1.489       .  S
Cd422       O429   2.449       .  S
Cd422       O428   2.443       .  S
Cd422       O427   2.442       .  S
Cd422       O423   2.499       .  S
Cd422       O426   2.528       .  S
Cd422       O424   2.430       .  S
C425        O429   1.265       .  A
C425       C2946   1.482       .  S
O430        C433   1.270       .  A
O430       Cd435   2.519       .  S
C431        O440   1.260       .  A
C431        O436   1.268       .  A
C431       C2914   1.482       .  S
O432        C438   1.271       .  A
O432       Cd435   2.502       .  S
C433        O441   1.266       .  A
C433       C3173   1.499       .  S
C434        O439   1.269       .  A
C434        O437   1.265       .  A
C434       C2898   1.495       .  S
Cd435       O442   2.427       .  S
Cd435       O441   2.442       .  S
Cd435       O440   2.452   1_545  S
Cd435       O436   2.519   1_545  S
Cd435       O439   2.511   1_545  S
Cd435       O437   2.458   1_545  S
C438        O442   1.265       .  A
C438       C2962   1.481       .  S
O443        C446   1.267       .  A
O443       Cd448   2.502       .  S
C444        O453   1.268       .  A
C444        O449   1.268       .  A
C444       C2850   1.495       .  S
O445        C451   1.270       .  A
O445       Cd448   2.509       .  S
C446        O454   1.262       .  A
C446       C2882   1.475       .  S
C447        O452   1.268       .  A
C447        O450   1.265       .  A
C447       C2866   1.492       .  S
Cd448       O455   2.421       .  S
Cd448       O454   2.427       .  S
Cd448       O453   2.442       .  S
Cd448       O449   2.484       .  S
Cd448       O452   2.508       .  S
Cd448       O450   2.440       .  S
C451        O455   1.263       .  A
C451       C2917   1.484       .  S
O456        C459   1.269   1_545  A
O456       Cd461   2.495       .  S
C457        O466   1.268       .  A
C457        O462   1.261       .  A
C457       C2949   1.484       .  S
O458        C464   1.270       .  A
O458       Cd461   2.491   1_565  S
C459        O467   1.267       .  A
C459       C2821   1.497       .  S
C460        O465   1.269       .  A
C460        O463   1.263       .  A
C460       C2837   1.488       .  S
Cd461       O468   2.434   1_545  S
Cd461       O467   2.450   1_545  S
Cd461       O466   2.514       .  S
Cd461       O462   2.446       .  S
Cd461       O465   2.516       .  S
Cd461       O463   2.446       .  S
C464        O468   1.264       .  A
C464       C2885   1.476       .  S
O469        C472   1.267       .  A
O469       Cd474   2.473   1_556  S
C470        O479   1.262       .  A
C470        O475   1.266       .  A
C470       C2805   1.473       .  S
O471        C477   1.269       .  A
O471       Cd474   2.515       .  S
C472        O480   1.267       .  A
C472       C2770   1.492       .  S
C473        O478   1.270       .  A
C473        O476   1.264       .  A
C473       C2786   1.477       .  S
Cd474       O481   2.431       .  S
Cd474       O480   2.440   1_554  S
Cd474       O479   2.432       .  S
Cd474       O475   2.493       .  S
Cd474       O478   2.488   1_554  S
Cd474       O476   2.433   1_554  S
C477        O481   1.264       .  A
C477       C3314   1.494       .  S
O482        C485   1.268       .  A
O482       Cd487   2.493       .  S
C483        O492   1.263       .  A
C483        O488   1.267       .  A
C483       C2757   1.477       .  S
O484        C490   1.271       .  A
O484       Cd487   2.497       .  S
C485        O493   1.267       .  A
C485       C3285   1.493       .  S
C486        O491   1.270       .  A
C486        O489   1.263       .  A
C486       C3682   1.493       .  S
Cd487       O494   2.411       .  S
Cd487       O493   2.433       .  S
Cd487       O492   2.445       .  S
Cd487       O488   2.480       .  S
Cd487       O491   2.532       .  S
Cd487       O489   2.415       .  S
C490        O494   1.264       .  A
C490       C2802   1.482       .  S
O495        C498   1.270       .  A
O495       Cd500   2.481       .  S
C496        O505   1.261       .  A
C496        O501   1.267       .  A
C496       C2789   1.478       .  S
O497        C503   1.270       .  A
O497       Cd500   2.486       .  S
C498        O506   1.265       .  A
C498       C2869   1.493       .  S
C499        O504   1.268       .  A
C499        O502   1.264       .  A
C499       C2722   1.491       .  S
Cd500       O507   2.433       .  S
Cd500       O506   2.428       .  S
Cd500       O505   2.425       .  S
Cd500       O501   2.506       .  S
Cd500       O504   2.514       .  S
Cd500       O502   2.431       .  S
C503        O507   1.264       .  A
C503       C2738   1.477       .  S
O508        C511   1.272       .  A
O508       Cd513   2.501   1_554  S
C509        O518   1.270       .  A
C509        O514   1.260       .  A
C509       C2741   1.478       .  S
O510        C516   1.270       .  A
O510       Cd513   2.506       .  S
C511        O519   1.266       .  A
C511       C3573   1.493       .  S
C512        O517   1.271       .  A
C512        O515   1.266       .  A
C512       C2754   1.480       .  S
Cd513       O520   2.435       .  S
Cd513       O519   2.440   1_556  S
Cd513       O518   2.519       .  S
Cd513       O514   2.414       .  S
Cd513       O517   2.489   1_556  S
Cd513       O515   2.421   1_556  S
C516        O520   1.263       .  A
C516       C2818   1.490       .  S
O521        C524   1.267       .  A
O521       Cd526   2.506       .  S
C522        O531   1.266       .  A
C522        O527   1.271       .  A
C522       C2725   1.494       .  S
O523        C529   1.271       .  A
O523       Cd526   2.496       .  S
C524        O532   1.261       .  A
C524       C2706   1.479       .  S
C525        O530   1.269       .  A
C525        O528   1.264       .  A
C525       C3941   1.492       .  S
Cd526       O533   2.443       .  S
Cd526       O532   2.438       .  S
Cd526       O531   2.438       .  S
Cd526       O527   2.487       .  S
Cd526       O530   2.515       .  S
Cd526       O528   2.446       .  S
C529        O533   1.265       .  A
C529       C2693   1.484       .  S
O534        C537   1.269       .  A
O534       Cd539   2.504       .  S
C535        O544   1.262       .  A
C535        O540   1.269       .  A
C535       C2674   1.476       .  S
O536        C542   1.270       .  A
O536       Cd539   2.495       .  S
C537        O545   1.267       .  A
C537       C4037   1.499       .  S
C538        O543   1.269       .  A
C538        O541   1.263       .  A
C538       C2981   1.494       .  S
Cd539       O546   2.431       .  S
Cd539       O545   2.454       .  S
Cd539       O544   2.429       .  S
Cd539       O540   2.516       .  S
Cd539       O543   2.518       .  S
Cd539       O541   2.443       .  S
C542        O546   1.265       .  A
C542       C2709   1.476       .  S
O547        C550   1.269       .  A
O547       Cd552   2.480       .  S
C548        O557   1.261       .  A
C548        O553   1.267       .  A
C548       C2690   1.482       .  S
O549        C555   1.271       .  A
O549       Cd552   2.494       .  S
C550        O558   1.268       .  A
C550       C2642   1.495       .  S
C551        O556   1.269       .  A
C551        O554   1.261       .  A
C551       C2773   1.490       .  S
Cd552       O559   2.416       .  S
Cd552       O558   2.452       .  S
Cd552       O557   2.438       .  S
Cd552       O553   2.509       .  S
Cd552       O556   2.510       .  S
Cd552       O554   2.425       .  S
C555        O559   1.264       .  A
C555       C2658   1.479       .  S
O560        C563   1.268       .  A
O560       Cd565   2.511       .  S
C561        O570   1.267       .  A
C561        O566   1.269       .  A
C561       C3029   1.497       .  S
O562        C568   1.271       .  A
O562       Cd565   2.488       .  S
C563        O571   1.260       .  A
C563       C2661   1.483       .  S
C564        O569   1.270       .  A
C564        O567   1.263       .  A
C564       C2626   1.491       .  S
Cd565       O572   2.440       .  S
Cd565       O571   2.440       .  S
Cd565       O570   2.444       .  S
Cd565       O566   2.495       .  S
Cd565       O569   2.522       .  S
Cd565       O567   2.446       .  S
C568        O572   1.265       .  A
C568       C2677   1.482       .  S
O573        C576   1.270       .  A
O573       Cd578   2.510       .  S
C574        O583   1.261       .  A
C574        O579   1.268       .  A
C574       C2610   1.484       .  S
O575        C581   1.268       .  A
O575       Cd578   2.514       .  S
C576        O584   1.265       .  A
C576       C2565   1.493       .  S
C577        O582   1.269       .  A
C577        O580   1.265       .  A
C577       C2597   1.473       .  S
Cd578       O585   2.430       .  S
Cd578       O584   2.444       .  S
Cd578       O583   2.454       .  S
Cd578       O579   2.515       .  S
Cd578       O582   2.474       .  S
Cd578       O580   2.423       .  S
C581        O585   1.264       .  A
C581       C2578   1.490       .  S
O586        C589   1.268       .  A
O586       Cd591   2.475       .  S
C587        O596   1.261       .  A
C587        O592   1.267       .  A
C587       C2594   1.481       .  S
O588        C594   1.270       .  A
O588       Cd591   2.491       .  S
C589        O597   1.268       .  A
C589       C2517   1.496       .  S
C590        O595   1.268       .  A
C590        O593   1.263       .  A
C590       C2530   1.487       .  S
Cd591       O598   2.438       .  S
Cd591       O597   2.457       .  S
Cd591       O596   2.441   1_556  S
Cd591       O592   2.499   1_556  S
Cd591       O595   2.515   1_556  S
Cd591       O593   2.453   1_556  S
C594        O598   1.265       .  A
C594       C2546   1.480       .  S
O599        C602   1.267       .  A
O599       Cd604   2.512       .  S
C600        O609   1.265       .  A
C600        O605   1.270       .  A
C600       C2466   1.497       .  S
O601        C607   1.270       .  A
O601       Cd604   2.487       .  S
C602        O610   1.261       .  A
C602       C2549   1.482       .  S
C603        O608   1.268       .  A
C603        O606   1.263       .  A
C603       C2482   1.482       .  S
Cd604       O611   2.426       .  S
Cd604       O610   2.434       .  S
Cd604       O609   2.442       .  S
Cd604       O605   2.492       .  S
Cd604       O608   2.508       .  S
Cd604       O606   2.438       .  S
C607        O611   1.264       .  A
C607       C2498   1.474       .  S
O612        C615   1.270       .  A
O612       Cd617   2.482   1_554  S
C613        O622   1.261       .  A
C613        O618   1.268       .  A
C613       C2501   1.473       .  S
O614        C620   1.270       .  A
O614       Cd617   2.500   1_554  S
C615        O623   1.266       .  A
C615       C2437   1.491       .  S
C616        O621   1.269       .  A
C616        O619   1.263       .  A
C616       C2453   1.488       .  S
Cd617       O624   2.444   1_556  S
Cd617       O623   2.425   1_556  S
Cd617       O622   2.413       .  S
Cd617       O618   2.505       .  S
Cd617       O621   2.508       .  S
Cd617       O619   2.445       .  S
C620        O624   1.265       .  A
C620       C2613   1.484       .  S
O625        C628   1.271       .  A
O625       Cd630   2.485       .  S
C626        O635   1.270       .  A
C626        O631   1.261       .  A
C626       C2421   1.479       .  S
O627        C633   1.269       .  A
O627       Cd630   2.501       .  S
C628        O636   1.268       .  A
C628       C3330   1.499       .  S
C629        O634   1.270       .  A
C629        O632   1.264       .  A
C629       C2402   1.476       .  S
Cd630       O637   2.428       .  S
Cd630       O636   2.453       .  S
Cd630       O635   2.517       .  S
Cd630       O631   2.424       .  S
Cd630       O634   2.489       .  S
Cd630       O632   2.423       .  S
C633        O637   1.265       .  A
C633       C2434   1.489       .  S
O638        C641   1.272       .  A
O638       Cd643   2.516       .  S
C639        O648   1.261       .  A
C639        O644   1.270       .  A
C639       C2405   1.480       .  S
O640        C646   1.270       .  A
O640       Cd643   2.501       .  S
C641        O649   1.265       .  A
C641       C2370   1.500       .  S
C642        O647   1.269       .  A
C642        O645   1.266       .  A
C642       C3365   1.490       .  S
Cd643       O650   2.444       .  S
Cd643       O649   2.427       .  S
Cd643       O648   2.424       .  S
Cd643       O644   2.519       .  S
Cd643       O647   2.515       .  S
Cd643       O645   2.461       .  S
C646        O650   1.266       .  A
C646       C2386   1.489       .  S
O651        C654   1.271       .  A
O651       Cd656   2.515       .  S
C652        O661   1.260       .  A
C652        O657   1.270       .  A
C652       C2354   1.484       .  S
O653        C659   1.269       .  A
O653       Cd656   2.483       .  S
C654        O662   1.264       .  A
C654       C2581   1.497       .  S
C655        O660   1.267       .  A
C655        O658   1.264       .  A
C655       C2341   1.482       .  S
Cd656       O663   2.423       .  S
Cd656       O662   2.435       .  S
Cd656       O661   2.426       .  S
Cd656       O657   2.532       .  S
Cd656       O660   2.493       .  S
Cd656       O658   2.443       .  S
C659        O663   1.265       .  A
C659       C2418   1.474       .  S
O664        C667   1.265       .  A
O664       Cd669   2.506       .  S
C665        O674   1.265       .  A
C665        O670   1.271       .  A
C665       C2306   1.500       .  S
O666        C672   1.271       .  A
O666       Cd669   2.501       .  S
C667        O675   1.261       .  A
C667       C2389   1.488       .  S
C668        O673   1.269       .  A
C668        O671   1.261       .  A
C668       C2325   1.496       .  S
Cd669       O676   2.431       .  S
Cd669       O675   2.481       .  S
Cd669       O674   2.456       .  S
Cd669       O670   2.502       .  S
Cd669       O673   2.533       .  S
Cd669       O671   2.429       .  S
C672        O676   1.264       .  A
C672       C2357   1.481       .  S
O677        C680   1.269       .  A
O677       Cd682   2.489       .  S
C678        O687   1.260       .  A
C678        O683   1.268       .  A
C678       C2293   1.478       .  S
O679        C685   1.268       .  A
O679       Cd682   2.491       .  S
C680        O688   1.268       .  A
C680       C2338   1.497       .  S
C681        O686   1.269       .  A
C681        O684   1.265       .  A
C681       C2274   1.473       .  S
Cd682       O689   2.438       .  S
Cd682       O688   2.450       .  S
Cd682       O687   2.436       .  S
Cd682       O683   2.517       .  S
Cd682       O686   2.482       .  S
Cd682       O684   2.423       .  S
C685        O689   1.263       .  A
C685       C4261   1.481       .  S
O690        C693   1.269       .  A
O690       Cd695   2.493       .  S
C691        O700   1.261       .  A
C691        O696   1.268       .  A
C691       C2258   1.479       .  S
O692        C698   1.270       .  A
O692       Cd695   2.507       .  S
C693        O701   1.268       .  A
C693       C4229   1.498       .  S
C694        O699   1.269       .  A
C694        O697   1.265       .  A
C694       C3877   1.493       .  S
Cd695       O702   2.448       .  S
Cd695       O701   2.450       .  S
Cd695       O700   2.429       .  S
Cd695       O696   2.526       .  S
Cd695       O699   2.513       .  S
Cd695       O697   2.443       .  S
C698        O702   1.265       .  A
C698       C2290   1.488       .  S
O703        C706   1.268       .  A
O703       Cd708   2.511       .  S
C704        O713   1.265       .  A
C704        O709   1.272       .  A
C704       C2994   1.494       .  S
O705        C711   1.269       .  A
O705       Cd708   2.503       .  S
C706        O714   1.261       .  A
C706       C2277   1.478       .  S
C707        O712   1.268       .  A
C707        O710   1.265       .  A
C707       C2242   1.481       .  S
Cd708       O715   2.440       .  S
Cd708       O714   2.433       .  S
Cd708       O713   2.420       .  S
Cd708       O709   2.501       .  S
Cd708       O712   2.488       .  S
Cd708       O710   2.457       .  S
C711        O715   1.264       .  A
C711       C2309   1.486       .  S
O716        C719   1.267       .  A
O716       Cd721   2.499       .  S
C717        O726   1.263       .  A
C717        O722   1.270       .  A
C717       C3845   1.494       .  S
O718        C724   1.270       .  A
O718       Cd721   2.489       .  S
C719        O727   1.262       .  A
C719       C2245   1.483       .  S
C720        O725   1.267       .  A
C720        O723   1.264       .  A
C720       C3093   1.489       .  S
Cd721       O728   2.434       .  S
Cd721       O727   2.444       .  S
Cd721       O726   2.413       .  S
Cd721       O722   2.508       .  S
Cd721       O725   2.514       .  S
Cd721       O723   2.450       .  S
C724        O728   1.265       .  A
C724       C2261   1.479       .  S
O729        C732   1.269       .  A
O729       Cd734   2.495       .  S
C730        O739   1.259       .  A
C730        O735   1.266       .  A
C730       C2226   1.482       .  S
O731        C737   1.270       .  A
O731       Cd734   2.496       .  S
C732        O740   1.267       .  A
C732       C2194   1.496       .  S
C733        O738   1.268       .  A
C733        O736   1.261       .  A
C733       C2853   1.490       .  S
Cd734       O741   2.451       .  S
Cd734       O740   2.444       .  S
Cd734       O739   2.445       .  S
Cd734       O735   2.515       .  S
Cd734       O738   2.525       .  S
Cd734       O736   2.442       .  S
C737        O741   1.265       .  A
C737       C2210   1.486       .  S
O742        C745   1.272       .  A
O742       Cd747   2.504       .  S
C743        O752   1.262       .  A
C743        O748   1.270       .  A
C743       C2178   1.491       .  S
O744        C750   1.268       .  A
O744       Cd747   2.508   1_655  S
C745        O753   1.265       .  A
C745       C2901   1.500       .  S
C746        O751   1.270       .  A
C746        O749   1.265       .  A
C746       C2229   1.481       .  S
Cd747       O754   2.452   1_455  S
Cd747       O753   2.443       .  S
Cd747       O752   2.394   1_455  S
Cd747       O748   2.541   1_455  S
Cd747       O751   2.502       .  S
Cd747       O749   2.432       .  S
C750        O754   1.264       .  A
C750       C2165   1.484       .  S
O755        C758   1.270       .  A
O755       Cd760   2.514       .  S
C756        O765   1.264       .  A
C756        O761   1.271       .  A
C756       C2146   1.480       .  S
O757        C763   1.269       .  A
O757       Cd760   2.521       .  S
C758        O766   1.265       .  A
C758       C2114   1.494       .  S
C759        O764   1.272       .  A
C759        O762   1.265       .  A
C759       C2130   1.489       .  S
Cd760       O767   2.426       .  S
Cd760       O766   2.414       .  S
Cd760       O765   2.408       .  S
Cd760       O761   2.502       .  S
Cd760       O764   2.492       .  S
Cd760       O762   2.418       .  S
C763        O767   1.263       .  A
C763       C2181   1.479       .  S
O768        C771   1.270   1_455  A
O768       Cd773   2.487       .  S
C769        O778   1.263       .  A
C769        O774   1.270       .  A
C769       C2213   1.488       .  S
O770        C776   1.269       .  A
O770       Cd773   2.491       .  S
C771        O779   1.267       .  A
C771       C2082   1.494       .  S
C772        O777   1.271       .  A
C772        O775   1.263       .  A
C772       C2149   1.487       .  S
Cd773       O780   2.445       .  S
Cd773       O779   2.433   1_455  S
Cd773       O778   2.443       .  S
Cd773       O774   2.522       .  S
Cd773       O777   2.513   1_455  S
Cd773       O775   2.404   1_455  S
C776        O780   1.264       .  A
C776       C2098   1.483       .  S
O781        C784   1.261       .  A
O781       Cd786   2.426       .  S
C782        O791   1.268       .  A
C782        O787   1.269       .  A
C782       C2037   1.502       .  S
O783        C789   1.265       .  A
O783       Cd786   2.439       .  S
C784        O792   1.270       .  A
C784       C2066   1.483       .  S
C785        O790   1.270       .  A
C785        O788   1.264       .  A
C785       C2373   1.489       .  S
Cd786       O793   2.498       .  S
Cd786       O792   2.522       .  S
Cd786       O791   2.482       .  S
Cd786       O787   2.491       .  S
Cd786       O790   2.520       .  S
Cd786       O788   2.443       .  S
C789        O793   1.271       .  A
C789       C2050   1.480       .  S
O794        C797   1.269       .  A
O794       Cd799   2.534       .  S
C795        O804   1.268       .  A
C795        O800   1.271       .  A
C795       C1989   1.495       .  S
O796        C802   1.268       .  A
O796       Cd799   2.505       .  S
C797        O805   1.261       .  A
C797       C2053   1.484       .  S
C798        O803   1.270       .  A
C798        O801   1.264       .  A
C798       C2018   1.475       .  S
Cd799       O806   2.456       .  S
Cd799       O805   2.440       .  S
Cd799       O804   2.449   1_554  S
Cd799       O800   2.504   1_554  S
Cd799       O803   2.498   1_554  S
Cd799       O801   2.438   1_554  S
C802        O806   1.263       .  A
C802       C2005   1.488       .  S
O807        C810   1.270       .  A
O807       Cd812   2.495       .  S
C808        O817   1.262       .  A
C808        O813   1.269       .  A
C808       C2021   1.475       .  S
O809        C815   1.270       .  A
O809       Cd812   2.517       .  S
C810        O818   1.265       .  A
C810       C4085   1.494       .  S
C811        O816   1.270       .  A
C811        O814   1.264       .  A
C811       C1970   1.480       .  S
Cd812       O819   2.444       .  S
Cd812       O818   2.433       .  S
Cd812       O817   2.419       .  S
Cd812       O813   2.497       .  S
Cd812       O816   2.501       .  S
Cd812       O814   2.437       .  S
C815        O819   1.265       .  A
C815       C1957   1.499       .  S
O820        C823   1.270   1_556  A
O820       Cd825   2.498       .  S
C821        O830   1.260       .  A
C821        O826   1.268       .  A
C821       C1973   1.480       .  S
O822        C828   1.270       .  A
O822       Cd825   2.488   1_554  S
C823        O831   1.268       .  A
C823       C2322   1.498       .  S
C824        O829   1.268       .  A
C824        O827   1.263       .  A
C824       C4021   1.490       .  S
Cd825       O832   2.439   1_556  S
Cd825       O831   2.438   1_556  S
Cd825       O830   2.431       .  S
Cd825       O826   2.516       .  S
Cd825       O829   2.513       .  S
Cd825       O827   2.427       .  S
C828        O832   1.265       .  A
C828       C2069   1.479       .  S
O833        C836   1.271   1_455  A
O833       Cd838   2.496       .  S
C834        O843   1.261       .  A
C834        O839   1.268       .  A
C834       C1938   1.478       .  S
O835        C841   1.271       .  A
O835       Cd838   2.533       .  S
C836        O844   1.266       .  A
C836       C1909   1.497       .  S
C837        O842   1.271       .  A
C837        O840   1.265       .  A
C837       C1925   1.481       .  S
Cd838       O845   2.427       .  S
Cd838       O844   2.445   1_455  S
Cd838       O843   2.427       .  S
Cd838       O839   2.512       .  S
Cd838       O842   2.501   1_455  S
Cd838       O840   2.430   1_455  S
C841        O845   1.261       .  A
C841       C1986   1.501       .  S
O846        C849   1.271       .  A
O846       Cd851   2.508       .  S
C847        O856   1.262       .  A
C847        O852   1.268       .  A
C847       C1890   1.491       .  S
O848        C854   1.271       .  A
O848       Cd851   2.480       .  S
C849        O857   1.265       .  A
C849       C1954   1.492       .  S
C850        O855   1.269       .  A
C850        O853   1.262       .  A
C850       C2933   1.486       .  S
Cd851       O858   2.438       .  S
Cd851       O857   2.445       .  S
Cd851       O856   2.465       .  S
Cd851       O852   2.513       .  S
Cd851       O855   2.523       .  S
Cd851       O853   2.424       .  S
C854        O858   1.266       .  A
C854       C1941   1.479       .  S
O859        C862   1.268       .  A
O859       Cd864   2.486       .  S
C860        O869   1.262       .  A
C860        O865   1.267       .  A
C860       C1922   1.477       .  S
O861        C867   1.271       .  A
O861       Cd864   2.514       .  S
C862        O870   1.267       .  A
C862       C2485   1.491       .  S
C863        O868   1.269       .  A
C863        O866   1.264       .  A
C863       C1858   1.498       .  S
Cd864       O871   2.428       .  S
Cd864       O870   2.447       .  S
Cd864       O869   2.436       .  S
Cd864       O865   2.497       .  S
Cd864       O868   2.522       .  S
Cd864       O866   2.449       .  S
C867        O871   1.264       .  A
C867       C1874   1.485       .  S
O872        C875   1.270       .  A
O872       Cd877   2.519       .  S
C873        O882   1.261       .  A
C873        O878   1.264       .  A
C873       C1877   1.494       .  S
O874        C880   1.271       .  A
O874       Cd877   2.511   1_655  S
C875        O883   1.266       .  A
C875       C2834   1.501       .  S
C876        O881   1.268       .  A
C876        O879   1.263       .  A
C876       C1893   1.492       .  S
Cd877       O884   2.443   1_455  S
Cd877       O883   2.444       .  S
Cd877       O882   2.463   1_455  S
Cd877       O878   2.511   1_455  S
Cd877       O881   2.519       .  S
Cd877       O879   2.458       .  S
C880        O884   1.265       .  A
C880       C2514   1.489       .  S
O885        C888   1.261       .  A
O885       Cd890   2.416       .  S
C886        O895   1.266       .  A
C886        O891   1.270       .  A
C886       C1861   1.494       .  S
O887        C893   1.270       .  A
O887       Cd890   2.515       .  S
C888        O896   1.268       .  A
C888       C1842   1.473       .  S
C889        O894   1.268       .  A
C889        O892   1.265       .  A
C889       C4165   1.492       .  S
Cd890       O897   2.426       .  S
Cd890       O896   2.511       .  S
Cd890       O895   2.449       .  S
Cd890       O891   2.507       .  S
Cd890       O894   2.510       .  S
Cd890       O892   2.446       .  S
C893        O897   1.263       .  A
C893       C1826   1.482       .  S
O898        C901   1.268       .  A
O898       Cd903   2.480       .  S
C899        O908   1.266       .  A
C899        O904   1.261       .  A
C899       C1810   1.478       .  S
O900        C906   1.270       .  A
O900       Cd903   2.486       .  S
C901        O909   1.267       .  A
C901       C4149   1.494       .  S
C902        O907   1.268       .  A
C902        O905   1.261       .  A
C902       C2085   1.484       .  S
Cd903       O910   2.428       .  S
Cd903       O909   2.438       .  S
Cd903       O908   2.497       .  S
Cd903       O904   2.452       .  S
Cd903       O907   2.505       .  S
Cd903       O905   2.422       .  S
C906        O910   1.265       .  A
C906       C1845   1.476       .  S
O911        C914   1.271       .  A
O911       Cd916   2.518       .  S
C912        O921   1.261       .  A
C912        O917   1.269       .  A
C912       C1829   1.481       .  S
O913        C919   1.270       .  A
O913       Cd916   2.508       .  S
C914        O922   1.265       .  A
C914       C3061   1.503       .  S
C915        O920   1.269       .  A
C915        O918   1.263       .  A
C915       C1906   1.491       .  S
Cd916       O923   2.435       .  S
Cd916       O922   2.455       .  S
Cd916       O921   2.435       .  S
Cd916       O917   2.520       .  S
Cd916       O920   2.530       .  S
Cd916       O918   2.434       .  S
C919        O923   1.266       .  A
C919       C1794   1.486       .  S
O924        C927   1.268       .  A
O924       Cd929   2.509       .  S
C925        O934   1.267       .  A
C925        O930   1.270       .  A
C925       C2133   1.494       .  S
O926        C932   1.270       .  A
O926       Cd929   2.494       .  S
C927        O935   1.261       .  A
C927       C1797   1.482       .  S
C928        O933   1.268       .  A
C928        O931   1.263       .  A
C928       C3010   1.482       .  S
Cd929       O936   2.427       .  S
Cd929       O935   2.452       .  S
Cd929       O934   2.437       .  S
Cd929       O930   2.485       .  S
Cd929       O933   2.495       .  S
Cd929       O931   2.459       .  S
C932        O936   1.264       .  A
C932       C1813   1.480       .  S
O937        C940   1.270       .  A
O937       Cd942   2.497       .  S
C938        O947   1.266       .  A
C938        O943   1.269       .  A
C938       C3141   1.493       .  S
O939        C945   1.271       .  A
O939       Cd942   2.520       .  S
C940        O948   1.265       .  A
C940       C1778   1.472       .  S
C941        O946   1.271       .  A
C941        O944   1.264       .  A
C941       C1746   1.495       .  S
Cd942       O949   2.416       .  S
Cd942       O948   2.399       .  S
Cd942       O947   2.424       .  S
Cd942       O943   2.488       .  S
Cd942       O946   2.510       .  S
Cd942       O944   2.445       .  S
C945        O949   1.263       .  A
C945       C1765   1.481       .  S
O950        C953   1.273   1_455  A
O950       Cd955   2.483       .  S
C951        O960   1.264       .  A
C951        O956   1.271       .  A
C951       C1762   1.489       .  S
O952        C958   1.272       .  A
O952       Cd955   2.520   1_655  S
C953        O961   1.265       .  A
C953       C1714   1.492       .  S
C954        O959   1.272       .  A
C954        O957   1.265       .  A
C954       C3154   1.488       .  S
Cd955       O962   2.412   1_455  S
Cd955       O961   2.406   1_455  S
Cd955       O960   2.391       .  S
Cd955       O956   2.516       .  S
Cd955       O959   2.483       .  S
Cd955       O957   2.434       .  S
C958        O962   1.263       .  A
C958       C1733   1.485       .  S
O963        C966   1.268       .  A
O963       Cd968   2.502       .  S
C964        O973   1.263       .  A
C964        O969   1.270       .  A
C964       C1730   1.477       .  S
O965        C971   1.270       .  A
O965       Cd968   2.484       .  S
C966        O974   1.265       .  A
C966       C4277   1.496       .  S
C967        O972   1.268       .  A
C967        O970   1.263       .  A
C967       C1698   1.479       .  S
Cd968       O975   2.453       .  S
Cd968       O974   2.438       .  S
Cd968       O973   2.425       .  S
Cd968       O969   2.508       .  S
Cd968       O972   2.523       .  S
Cd968       O970   2.439       .  S
C971        O975   1.267       .  A
C971       C1682   1.491       .  S
O976        C979   1.273       .  A
O976       Cd981   2.466       .  S
C977        O986   1.265       .  A
C977        O982   1.271       .  A
C977       C1701   1.488       .  S
O978        C984   1.273       .  A
O978       Cd981   2.501       .  S
C979        O987   1.267       .  A
C979       C1669   1.495       .  S
C980        O985   1.272       .  A
C980        O983   1.266       .  A
C980       C4133   1.487       .  S
Cd981       O988   2.407       .  S
Cd981       O987   2.440       .  S
Cd981       O986   2.421   1_455  S
Cd981       O982   2.507   1_455  S
Cd981       O985   2.494   1_455  S
Cd981       O983   2.410   1_455  S
C984        O988   1.266       .  A
C984       C1781   1.488       .  S
O989        C992   1.272       .  A
O989       Cd994   2.507       .  S
C990        O999   1.264       .  A
C990        O995   1.272       .  A
C990       C1621   1.499       .  S
O991        C997   1.270       .  A
O991       Cd994   2.517       .  S
C992       O1000   1.264       .  A
C992       C1650   1.479       .  S
C993        O998   1.271       .  A
C993        O996   1.267       .  A
C993       C1666   1.492       .  S
Cd994      O1001   2.421       .  S
Cd994      O1000   2.419       .  S
Cd994       O999   2.430       .  S
Cd994       O995   2.511       .  S
Cd994       O998   2.484       .  S
Cd994       O996   2.442       .  S
C997       O1001   1.263       .  A
C997       C1634   1.478       .  S
O1002      C1005   1.270       .  A
O1002     Cd1007   2.488       .  S
C1003      O1012   1.264       .  A
C1003      O1008   1.269       .  A
C1003      C1602   1.477       .  S
O1004      C1010   1.273       .  A
O1004     Cd1007   2.509       .  S
C1005      O1013   1.268       .  A
C1005      C1749   1.500       .  S
C1006      O1011   1.272       .  A
C1006      O1009   1.264       .  A
C1006      C2034   1.490       .  S
Cd1007     O1014   2.411       .  S
Cd1007     O1013   2.453       .  S
Cd1007     O1012   2.457       .  S
Cd1007     O1008   2.491       .  S
Cd1007     O1011   2.526       .  S
Cd1007     O1009   2.449       .  S
C1010      O1014   1.265       .  A
C1010      C1653   1.489       .  S
O1015      C1018   1.272       .  A
O1015     Cd1020   2.488       .  S
C1016      O1025   1.262       .  A
C1016      O1021   1.269       .  A
C1016      C1637   1.491       .  S
O1017      C1023   1.269       .  A
O1017     Cd1020   2.496       .  S
C1018      O1026   1.266       .  A
C1018      C3701   1.496       .  S
C1019      O1024   1.268       .  A
C1019      O1022   1.264       .  A
C1019      C1573   1.482       .  S
Cd1020     O1027   2.429       .  S
Cd1020     O1026   2.431       .  S
Cd1020     O1025   2.430       .  S
Cd1020     O1021   2.528       .  S
Cd1020     O1024   2.495       .  S
Cd1020     O1022   2.441       .  S
C1023      O1027   1.263       .  A
C1023      C1586   1.476       .  S
O1028      C1031   1.268       .  A
O1028     Cd1033   2.504       .  S
C1029      O1038   1.261       .  A
C1029      O1034   1.267       .  A
C1029      C1589   1.479       .  S
O1030      C1036   1.268       .  A
O1030     Cd1033   2.539       .  S
C1031      O1039   1.267       .  A
C1031      C2002   1.495       .  S
C1032      O1037   1.271       .  A
C1032      O1035   1.265       .  A
C1032      C1605   1.485       .  S
Cd1033     O1040   2.432       .  S
Cd1033     O1039   2.450       .  S
Cd1033     O1038   2.437       .  S
Cd1033     O1034   2.511       .  S
Cd1033     O1037   2.513       .  S
Cd1033     O1035   2.411       .  S
C1036      O1040   1.263       .  A
C1036      C3637   1.499       .  S
O1041      C1044   1.269       .  A
O1041     Cd1046   2.515       .  S
C1042      O1051   1.266       .  A
C1042      O1047   1.272       .  A
C1042      C1570   1.496       .  S
O1043      C1049   1.270       .  A
O1043     Cd1046   2.513       .  S
C1044      O1052   1.262       .  A
C1044      C1554   1.486       .  S
C1045      O1050   1.270       .  A
C1045      O1048   1.263       .  A
C1045      C3746   1.485       .  S
Cd1046     O1053   2.453       .  S
Cd1046     O1052   2.423       .  S
Cd1046     O1051   2.434       .  S
Cd1046     O1047   2.483       .  S
Cd1046     O1050   2.512       .  S
Cd1046     O1048   2.438       .  S
C1049      O1053   1.264       .  A
C1049      C1538   1.489       .  S
O1054      C1057   1.269       .  A
O1054     Cd1059   2.497       .  S
C1055      O1064   1.261       .  A
C1055      O1060   1.268       .  A
C1055      C1541   1.485       .  S
O1056      C1062   1.269       .  A
O1056     Cd1059   2.484       .  S
C1057      O1065   1.266       .  A
C1057      C2101   1.498       .  S
C1058      O1063   1.268       .  A
C1058      O1061   1.265       .  A
C1058      C1618   1.493       .  S
Cd1059     O1066   2.447       .  S
Cd1059     O1065   2.452       .  S
Cd1059     O1064   2.449       .  S
Cd1059     O1060   2.525       .  S
Cd1059     O1063   2.503       .  S
Cd1059     O1061   2.444       .  S
C1062      O1066   1.266       .  A
C1062      C1522   1.482       .  S
O1067      C1070   1.268       .  A
O1067     Cd1072   2.507       .  S
C1068      O1077   1.266       .  A
C1068      O1073   1.270       .  A
C1068      C3957   1.489       .  S
O1069      C1075   1.270       .  A
O1069     Cd1072   2.482       .  S
C1070      O1078   1.262       .  A
C1070      C1525   1.483       .  S
C1071      O1076   1.269       .  A
C1071      O1074   1.263       .  A
C1071      C2197   1.483       .  S
Cd1072     O1079   2.405       .  S
Cd1072     O1078   2.445       .  S
Cd1072     O1077   2.431       .  S
Cd1072     O1073   2.492       .  S
Cd1072     O1076   2.499       .  S
Cd1072     O1074   2.429       .  S
C1075      O1079   1.266       .  A
C1075      C1506   1.485       .  S
O1080      C1083   1.271       .  A
O1080     Cd1085   2.505       .  S
C1081      O1090   1.263       .  A
C1081      O1086   1.271       .  A
C1081      C1509   1.471       .  S
O1082      C1088   1.270       .  A
O1082     Cd1085   2.503       .  S
C1083      O1091   1.265       .  A
C1083      C3890   1.494       .  S
C1084      O1089   1.271       .  A
C1084      O1087   1.264       .  A
C1084      C3973   1.489       .  S
Cd1085     O1092   2.437       .  S
Cd1085     O1091   2.426       .  S
Cd1085     O1090   2.395       .  S
Cd1085     O1086   2.505       .  S
Cd1085     O1089   2.509       .  S
Cd1085     O1087   2.436       .  S
C1088      O1092   1.264       .  A
C1088      C1557   1.476       .  S
O1093      C1096   1.269       .  A
O1093     Cd1098   2.496       .  S
C1094      O1103   1.261       .  A
C1094      O1099   1.267       .  A
C1094      C1493   1.480       .  S
O1095      C1101   1.270       .  A
O1095     Cd1098   2.495       .  S
C1096      O1104   1.267       .  A
C1096      C3426   1.497       .  S
C1097      O1102   1.269       .  A
C1097      O1100   1.264       .  A
C1097      C2469   1.488       .  S
Cd1098     O1105   2.447       .  S
Cd1098     O1104   2.452       .  S
Cd1098     O1103   2.447       .  S
Cd1098     O1099   2.509       .  S
Cd1098     O1102   2.517       .  S
Cd1098     O1100   2.443       .  S
C1101      O1105   1.265       .  A
C1101      C1474   1.484       .  S
O1106      C1109   1.268       .  A
O1106     Cd1111   2.499   1_565  S
C1107      O1116   1.267       .  A
C1107      O1112   1.268       .  A
C1107      C2450   1.496       .  S
O1108      C1114   1.269       .  A
O1108     Cd1111   2.492       .  S
C1109      O1117   1.261       .  A
C1109      C1458   1.477       .  S
C1110      O1115   1.268       .  A
C1110      O1113   1.263       .  A
C1110      C2645   1.488       .  S
Cd1111     O1118   2.432       .  S
Cd1111     O1117   2.428   1_545  S
Cd1111     O1116   2.436       .  S
Cd1111     O1112   2.496       .  S
Cd1111     O1115   2.512   1_545  S
Cd1111     O1113   2.443   1_545  S
C1114      O1118   1.265       .  A
C1114      C1490   1.482       .  S
O1119      C1122   1.269       .  A
O1119     Cd1124   2.500       .  S
C1120      O1129   1.268       .  A
C1120      O1125   1.262       .  A
C1120      C1442   1.479       .  S
O1121      C1127   1.269       .  A
O1121     Cd1124   2.487       .  S
C1122      O1130   1.267       .  A
C1122      C2629   1.500       .  S
C1123      O1128   1.269       .  A
C1123      O1126   1.263       .  A
C1123      C1426   1.490       .  S
Cd1124     O1131   2.428       .  S
Cd1124     O1130   2.460       .  S
Cd1124     O1129   2.516       .  S
Cd1124     O1125   2.442       .  S
Cd1124     O1128   2.506       .  S
Cd1124     O1126   2.434       .  S
C1127      O1131   1.264       .  A
C1127      C1461   1.474       .  S
O1132      C1135   1.266       .  A
O1132     Cd1137   2.506       .  S
C1133      O1142   1.265   1_565  A
C1133      O1138   1.269   1_565  A
C1133      C1413   1.489       .  S
O1134      C1140   1.270       .  A
O1134     Cd1137   2.502   1_565  S
C1135      O1143   1.262       .  A
C1135      C1477   1.480       .  S
C1136      O1141   1.269       .  A
C1136      O1139   1.263       .  A
C1136      C3461   1.486       .  S
Cd1137     O1144   2.443   1_545  S
Cd1137     O1143   2.455       .  S
Cd1137     O1142   2.451       .  S
Cd1137     O1138   2.482       .  S
Cd1137     O1141   2.512       .  S
Cd1137     O1139   2.433       .  S
C1140      O1144   1.265       .  A
C1140      C1445   1.487       .  S
O1145      C1148   1.270   1_545  A
O1145     Cd1150   2.493       .  S
C1146      O1155   1.260       .  A
C1146      O1151   1.266       .  A
C1146      C1394   1.478       .  S
O1147      C1153   1.268       .  A
O1147     Cd1150   2.516       .  S
C1148      O1156   1.267       .  A
C1148      C1362   1.492       .  S
C1149      O1154   1.271       .  A
C1149      O1152   1.265       .  A
C1149      C1381   1.484       .  S
Cd1150     O1157   2.419       .  S
Cd1150     O1156   2.430   1_545  S
Cd1150     O1155   2.441       .  S
Cd1150     O1151   2.501       .  S
Cd1150     O1154   2.489   1_545  S
Cd1150     O1152   2.437   1_545  S
C1153      O1157   1.263       .  A
C1153      C1717   1.487       .  S
O1158      C1161   1.272       .  A
O1158     Cd1163   2.509       .  S
C1159      O1168   1.262       .  A
C1159      O1164   1.270       .  A
C1159      C1346   1.477       .  S
O1160      C1166   1.271       .  A
O1160     Cd1163   2.489       .  S
C1161      O1169   1.265       .  A
C1161      C1685   1.500       .  S
C1162      O1167   1.270       .  A
C1162      O1165   1.265       .  A
C1162      C2562   1.494       .  S
Cd1163     O1170   2.417       .  S
Cd1163     O1169   2.436       .  S
Cd1163     O1168   2.437       .  S
Cd1163     O1164   2.510       .  S
Cd1163     O1167   2.500       .  S
Cd1163     O1165   2.429       .  S
C1166      O1170   1.266       .  A
C1166      C1397   1.479       .  S
O1171      C1174   1.270       .  A
O1171     Cd1176   2.498       .  S
C1172      O1181   1.261       .  A
C1172      O1177   1.268       .  A
C1172      C1378   1.479       .  S
O1173      C1179   1.268       .  A
O1173     Cd1176   2.484       .  S
C1174      O1182   1.264       .  A
C1174      C3605   1.495       .  S
C1175      O1180   1.267       .  A
C1175      O1178   1.265       .  A
C1175      C1314   1.483       .  S
Cd1176     O1183   2.427       .  S
Cd1176     O1182   2.436       .  S
Cd1176     O1181   2.440       .  S
Cd1176     O1177   2.511       .  S
Cd1176     O1180   2.490       .  S
Cd1176     O1178   2.438       .  S
C1179      O1183   1.265       .  A
C1179      C1330   1.484       .  S
O1184      C1187   1.269       .  A
O1184     Cd1189   2.511       .  S
C1185      O1194   1.261       .  A
C1185      O1190   1.264       .  A
C1185      C1333   1.488       .  S
O1186      C1192   1.269       .  A
O1186     Cd1189   2.497   1_565  S
C1187      O1195   1.265       .  A
C1187      C2533   1.498       .  S
C1188      O1193   1.270       .  A
C1188      O1191   1.265       .  A
C1188      C1349   1.485       .  S
Cd1189     O1196   2.448   1_545  S
Cd1189     O1195   2.449       .  S
Cd1189     O1194   2.476   1_545  S
Cd1189     O1190   2.494   1_545  S
Cd1189     O1193   2.502       .  S
Cd1189     O1191   2.437       .  S
C1192      O1196   1.263       .  A
C1192      C3557   1.487       .  S
O1197      C1200   1.271       .  A
O1197     Cd1202   2.495       .  S
C1198      O1207   1.262       .  A
C1198      O1203   1.268       .  A
C1198      C1298   1.477       .  S
O1199      C1205   1.270       .  A
O1199     Cd1202   2.512       .  S
C1200      O1208   1.264       .  A
C1200      C1317   1.494       .  S
C1201      O1206   1.270       .  A
C1201      O1204   1.266       .  A
C1201      C1282   1.482       .  S
Cd1202     O1209   2.415       .  S
Cd1202     O1208   2.430       .  S
Cd1202     O1207   2.429       .  S
Cd1202     O1203   2.513       .  S
Cd1202     O1206   2.487       .  S
Cd1202     O1204   2.446       .  S
C1205      O1209   1.262       .  A
C1205      C3829   1.489       .  S
O1210      C1213   1.271       .  A
O1210     Cd1215   2.485       .  S
C1211      O1220   1.260       .  A
C1211      O1216   1.268       .  A
C1211      C1266   1.482       .  S
O1212      C1218   1.271       .  A
O1212     Cd1215   2.493       .  S
C1213      O1221   1.266       .  A
C1213      C3797   1.493       .  S
C1214      O1219   1.268       .  A
C1214      O1217   1.263       .  A
C1214      C1410   1.478       .  S
Cd1215     O1222   2.433       .  S
Cd1215     O1221   2.451       .  S
Cd1215     O1220   2.436       .  S
Cd1215     O1216   2.516       .  S
Cd1215     O1219   2.509       .  S
Cd1215     O1217   2.446       .  S
C1218      O1222   1.265       .  A
C1218      C1301   1.482       .  S
O1223      C1226   1.268       .  A
O1223     Cd1228   2.477       .  S
C1224      O1233   1.262       .  A
C1224      O1229   1.267       .  A
C1224      C1285   1.477       .  S
O1225      C1231   1.269       .  A
O1225     Cd1228   2.480       .  S
C1226      O1234   1.267       .  A
C1226      C2162   1.496       .  S
C1227      O1232   1.269       .  A
C1227      O1230   1.262       .  A
C1227      C1365   1.485       .  S
Cd1228     O1235   2.450       .  S
Cd1228     O1234   2.457       .  S
Cd1228     O1233   2.437       .  S
Cd1228     O1229   2.504       .  S
Cd1228     O1232   2.514       .  S
Cd1228     O1230   2.416       .  S
C1231      O1235   1.266       .  A
C1231      C1250   1.481       .  S
O1236      C1239   1.270       .  A
O1236     Cd1241   2.516       .  S
C1237      O1246   1.262       .  A
C1237      O1242   1.269       .  A
C1237      C1253   1.478       .  S
O1238      C1244   1.270       .  A
O1238     Cd1241   2.513       .  S
C1239      O1247   1.266       .  A
C1239      C1429   1.495       .  S
C1240      O1245   1.271       .  A
C1240      O1243   1.265       .  A
C1240      C1269   1.479       .  S
Cd1241     O1248   2.421       .  S
Cd1241     O1247   2.424       .  S
Cd1241     O1246   2.424       .  S
Cd1241     O1242   2.507       .  S
Cd1241     O1245   2.498       .  S
Cd1241     O1243   2.427       .  S
C1244      O1248   1.262       .  A
C1244      C2117   1.492       .  S
C1249      C1250   1.405       .  A
C1249      C1254   1.407       .  A
C1249      H1256   1.084       .  S
C1250      C1251   1.415       .  A
C1251      C1252   1.404       .  A
C1251      C1258   1.508       .  S
C1252      C1253   1.403       .  A
C1252      H1257   1.084       .  S
C1253      C1254   1.414       .  A
C1254      C1255   1.507       .  S
C1255      H1259   1.111       .  S
C1255      H1260   1.111       .  S
C1255      H1261   1.110       .  S
C1258      H1262   1.111       .  S
C1258      H1263   1.109       .  S
C1258      H1264   1.111       .  S
C1265      C1266   1.403       .  A
C1265      C1270   1.406       .  A
C1265      H1272   1.084       .  S
C1266      C1267   1.417       .  A
C1267      C1268   1.406       .  A
C1267      C1274   1.508       .  S
C1268      C1269   1.402       .  A
C1268      H1273   1.084       .  S
C1269      C1270   1.414       .  A
C1270      C1271   1.508       .  S
C1271      H1275   1.111       .  S
C1271      H1276   1.109       .  S
C1271      H1277   1.111       .  S
C1274      H1278   1.109       .  S
C1274      H1279   1.110       .  S
C1274      H1280   1.111       .  S
C1281      C1282   1.405       .  A
C1281      C1286   1.406       .  A
C1281      H1288   1.084       .  S
C1282      C1283   1.414       .  A
C1283      C1284   1.405       .  A
C1283      C1290   1.507       .  S
C1284      C1285   1.403       .  A
C1284      H1289   1.084       .  S
C1285      C1286   1.413       .  A
C1286      C1287   1.507       .  S
C1287      H1291   1.111       .  S
C1287      H1292   1.110       .  S
C1287      H1293   1.110       .  S
C1290      H1294   1.110       .  S
C1290      H1295   1.110       .  S
C1290      H1296   1.111       .  S
C1297      C1298   1.402       .  A
C1297      C1302   1.405       .  A
C1297      H1304   1.084       .  S
C1298      C1299   1.413       .  A
C1299      C1300   1.406       .  A
C1299      C1306   1.507       .  S
C1300      C1301   1.406       .  A
C1300      H1305   1.084       .  S
C1301      C1302   1.414       .  A
C1302      C1303   1.507       .  S
C1303      H1307   1.111       .  S
C1303      H1308   1.111       .  S
C1303      H1309   1.110       .  S
C1306      H1310   1.111       .  S
C1306      H1311   1.110       .  S
C1306      H1312   1.111       .  S
C1313      C1314   1.400       .  A
C1313      C1318   1.402       .  A
C1313      H1320   1.085       .  S
C1314      C1315   1.414       .  A
C1315      C1316   1.408       .  A
C1315      C1322   1.507       .  S
C1316      C1317   1.409       .  A
C1316      H1321   1.084       .  S
C1317      C1318   1.422       .  A
C1318      C1319   1.509       .  S
C1319      H1323   1.111       .  S
C1319      H1324   1.110       .  S
C1319      H1325   1.110       .  S
C1322      H1326   1.110       .  S
C1322      H1327   1.110       .  S
C1322      H1328   1.111       .  S
C1329      C1330   1.403       .  A
C1329      C1334   1.403       .  A
C1329      H1336   1.084       .  S
C1330      C1331   1.415       .  A
C1331      C1332   1.407       .  A
C1331      C1338   1.507       .  S
C1332      C1333   1.407       .  A
C1332      H1337   1.084       .  S
C1333      C1334   1.418       .  A
C1334      C1335   1.508       .  S
C1335      H1339   1.111       .  S
C1335      H1340   1.111       .  S
C1335      H1341   1.110       .  S
C1338      H1342   1.111       .  S
C1338      H1343   1.110       .  S
C1338      H1344   1.111       .  S
C1345      C1346   1.403       .  A
C1345      C1350   1.409       .  A
C1345      H1352   1.084       .  S
C1346      C1347   1.411       .  A
C1347      C1348   1.404       .  A
C1347      C1354   1.508       .  S
C1348      C1349   1.405       .  A
C1348      H1353   1.084       .  S
C1349      C1350   1.416       .  A
C1350      C1351   1.506       .  S
C1351      H1355   1.111       .  S
C1351      H1356   1.110       .  S
C1351      H1357   1.110       .  S
C1354      H1358   1.110       .  S
C1354      H1359   1.111       .  S
C1354      H1360   1.111       .  S
C1361      C1362   1.405       .  A
C1361      C1366   1.400       .  A
C1361      H1368   1.084       .  S
C1362      C1363   1.419       .  A
C1363      C1364   1.410       .  A
C1363      C1370   1.506   1_565  S
C1364      C1365   1.405       .  A
C1364      H1369   1.085       .  S
C1365      C1366   1.416       .  A
C1366      C1367   1.510       .  S
C1367      H1371   1.111       .  S
C1367      H1372   1.109       .  S
C1367      H1373   1.110       .  S
C1370      H1374   1.109       .  S
C1370      H1375   1.110       .  S
C1370      H1376   1.111       .  S
C1377      C1378   1.401       .  A
C1377      C1382   1.406       .  A
C1377      H1384   1.084       .  S
C1378      C1379   1.414       .  A
C1379      C1380   1.406       .  A
C1379      C1386   1.508       .  S
C1380      C1381   1.405       .  A
C1380      H1385   1.084       .  S
C1381      C1382   1.417       .  A
C1382      C1383   1.508       .  S
C1383      H1387   1.111       .  S
C1383      H1388   1.109       .  S
C1383      H1389   1.110       .  S
C1386      H1390   1.109       .  S
C1386      H1391   1.110       .  S
C1386      H1392   1.111       .  S
C1393      C1394   1.405       .  A
C1393      C1398   1.406       .  A
C1393      H1400   1.084       .  S
C1394      C1395   1.414       .  A
C1395      C1396   1.403       .  A
C1395      C1402   1.508       .  S
C1396      C1397   1.403       .  A
C1396      H1401   1.085       .  S
C1397      C1398   1.413       .  A
C1398      C1399   1.507       .  S
C1399      H1403   1.111       .  S
C1399      H1404   1.110       .  S
C1399      H1405   1.110       .  S
C1402      H1406   1.111       .  S
C1402      H1407   1.110       .  S
C1402      H1408   1.111       .  S
C1409      C1410   1.400       .  A
C1409      C1414   1.405       .  A
C1409      H1416   1.084       .  S
C1410      C1411   1.412       .  A
C1411      C1412   1.407       .  A
C1411      C1418   1.507       .  S
C1412      C1413   1.407       .  A
C1412      H1417   1.084       .  S
C1413      C1414   1.420       .  A
C1414      C1415   1.508       .  S
C1415      H1419   1.111       .  S
C1415      H1420   1.110   1_565  S
C1415      H1421   1.109       .  S
C1418      H1422   1.109       .  S
C1418      H1423   1.111       .  S
C1418      H1424   1.111       .  S
C1425      C1426   1.410       .  A
C1425      C1430   1.415       .  A
C1425      H1432   1.060       .  S
C1426      C1427   1.417       .  A
C1427      C1428   1.395       .  A
C1427      C1434   1.508       .  S
C1428      C1429   1.400       .  A
C1428      H1433   1.129       .  S
C1429      C1430   1.420       .  A
C1430      C1431   1.507       .  S
C1431      H1435   1.109       .  S
C1431      H1436   1.111       .  S
C1431      H1437   1.111       .  S
C1434      H1438   1.108       .  S
C1434      H1439   1.108       .  S
C1434      H1440   1.115       .  S
C1441      C1442   1.403       .  A
C1441      C1446   1.407       .  A
C1441      H1448   1.084       .  S
C1442      C1443   1.412       .  A
C1443      C1444   1.406       .  A
C1443      C1450   1.507       .  S
C1444      C1445   1.406       .  A
C1444      H1449   1.084       .  S
C1445      C1446   1.416       .  A
C1446      C1447   1.507       .  S
C1447      H1451   1.111       .  S
C1447      H1452   1.110       .  S
C1447      H1453   1.110       .  S
C1450      H1454   1.110       .  S
C1450      H1455   1.111       .  S
C1450      H1456   1.111       .  S
C1457      C1458   1.402       .  A
C1457      C1462   1.403       .  A
C1457      H1464   1.084       .  S
C1458      C1459   1.416       .  A
C1459      C1460   1.404       .  A
C1459      C1466   1.508       .  S
C1460      C1461   1.401       .  A
C1460      H1465   1.085       .  S
C1461      C1462   1.413       .  A
C1462      C1463   1.507       .  S
C1463      H1467   1.111       .  S
C1463      H1468   1.110       .  S
C1463      H1469   1.109       .  S
C1466      H1470   1.110   1_565  S
C1466      H1471   1.109   1_565  S
C1466      H1472   1.111       .  S
C1473      C1474   1.405       .  A
C1473      C1478   1.407       .  A
C1473      H1480   1.085       .  S
C1474      C1475   1.415       .  A
C1475      C1476   1.406       .  A
C1475      C1482   1.507       .  S
C1476      C1477   1.403       .  A
C1476      H1481   1.084       .  S
C1477      C1478   1.413       .  A
C1478      C1479   1.508       .  S
C1479      H1483   1.111       .  S
C1479      H1484   1.111       .  S
C1479      H1485   1.110       .  S
C1482      H1486   1.111       .  S
C1482      H1487   1.110       .  S
C1482      H1488   1.111       .  S
C1489      C1490   1.405       .  A
C1489      C1494   1.405       .  A
C1489      H1496   1.084       .  S
C1490      C1491   1.415       .  A
C1491      C1492   1.406       .  A
C1491      C1498   1.507       .  S
C1492      C1493   1.404       .  A
C1492      H1497   1.084       .  S
C1493      C1494   1.413       .  A
C1494      C1495   1.507       .  S
C1495      H1499   1.111       .  S
C1495      H1500   1.110       .  S
C1495      H1501   1.110       .  S
C1498      H1502   1.110       .  S
C1498      H1503   1.110       .  S
C1498      H1504   1.111       .  S
C1505      C1506   1.405       .  A
C1505      C1510   1.398       .  A
C1505      H1512   1.084       .  S
C1506      C1507   1.419       .  A
C1507      C1508   1.409       .  A
C1507      C1514   1.507       .  S
C1508      C1509   1.402       .  A
C1508      H1513   1.084       .  S
C1509      C1510   1.410       .  A
C1510      C1511   1.510       .  S
C1511      H1515   1.111       .  S
C1511      H1516   1.110       .  S
C1511      H1517   1.110       .  S
C1514      H1518   1.110       .  S
C1514      H1519   1.111       .  S
C1514      H1520   1.111       .  S
C1521      C1522   1.404       .  A
C1521      C1526   1.406       .  A
C1521      H1528   1.084       .  S
C1522      C1523   1.414       .  A
C1523      C1524   1.406       .  A
C1523      C1530   1.508       .  S
C1524      C1525   1.405       .  A
C1524      H1529   1.084       .  S
C1525      C1526   1.414       .  A
C1526      C1527   1.507       .  S
C1527      H1531   1.111       .  S
C1527      H1532   1.110       .  S
C1527      H1533   1.110       .  S
C1530      H1534   1.110       .  S
C1530      H1535   1.110       .  S
C1530      H1536   1.111       .  S
C1537      C1538   1.405       .  A
C1537      C1542   1.408       .  A
C1537      H1544   1.084       .  S
C1538      C1539   1.418       .  A
C1539      C1540   1.408       .  A
C1539      C1546   1.508       .  S
C1540      C1541   1.403       .  A
C1540      H1545   1.084       .  S
C1541      C1542   1.416       .  A
C1542      C1543   1.508       .  S
C1543      H1547   1.111       .  S
C1543      H1548   1.109       .  S
C1543      H1549   1.110       .  S
C1546      H1550   1.109       .  S
C1546      H1551   1.110       .  S
C1546      H1552   1.111       .  S
C1553      C1554   1.406       .  A
C1553      C1558   1.402       .  A
C1553      H1560   1.085       .  S
C1554      C1555   1.417       .  A
C1555      C1556   1.410       .  A
C1555      C1562   1.506       .  S
C1556      C1557   1.402       .  A
C1556      H1561   1.084       .  S
C1557      C1558   1.410       .  A
C1558      C1559   1.508       .  S
C1559      H1563   1.111       .  S
C1559      H1564   1.110       .  S
C1559      H1565   1.110       .  S
C1562      H1566   1.111       .  S
C1562      H1567   1.110       .  S
C1562      H1568   1.111       .  S
C1569      C1570   1.409       .  A
C1569      C1574   1.408       .  A
C1569      H1576   1.083       .  S
C1570      C1571   1.423       .  A
C1571      C1572   1.404       .  A
C1571      C1578   1.509       .  S
C1572      C1573   1.401       .  A
C1572      H1577   1.085       .  S
C1573      C1574   1.413       .  A
C1574      C1575   1.507       .  S
C1575      H1579   1.111       .  S
C1575      H1580   1.110       .  S
C1575      H1581   1.111       .  S
C1578      H1582   1.110       .  S
C1578      H1583   1.110       .  S
C1578      H1584   1.111       .  S
C1585      C1586   1.401       .  A
C1585      C1590   1.404       .  A
C1585      H1592   1.084       .  S
C1586      C1587   1.414       .  A
C1587      C1588   1.406       .  A
C1587      C1594   1.508       .  S
C1588      C1589   1.404       .  A
C1588      H1593   1.084       .  S
C1589      C1590   1.416       .  A
C1590      C1591   1.508       .  S
C1591      H1595   1.111       .  S
C1591      H1596   1.110       .  S
C1591      H1597   1.109       .  S
C1594      H1598   1.111       .  S
C1594      H1599   1.109       .  S
C1594      H1600   1.111       .  S
C1601      C1602   1.405       .  A
C1601      C1606   1.411       .  A
C1601      H1608   1.084       .  S
C1602      C1603   1.409       .  A
C1603      C1604   1.401       .  A
C1603      C1610   1.508       .  S
C1604      C1605   1.405       .  A
C1604      H1609   1.084       .  S
C1605      C1606   1.417       .  A
C1606      C1607   1.506       .  S
C1607      H1611   1.111       .  S
C1607      H1612   1.111       .  S
C1607      H1613   1.110       .  S
C1610      H1614   1.110       .  S
C1610      H1615   1.111       .  S
C1610      H1616   1.111       .  S
C1617      C1618   1.404       .  A
C1617      C1622   1.404       .  A
C1617      H1624   1.085       .  S
C1618      C1619   1.417       .  A
C1619      C1620   1.411       .  A
C1619      C1626   1.507       .  S
C1620      C1621   1.408       .  A
C1620      H1625   1.083       .  S
C1621      C1622   1.423       .  A
C1622      C1623   1.510       .  S
C1623      H1627   1.111       .  S
C1623      H1628   1.110       .  S
C1623      H1629   1.110       .  S
C1626      H1630   1.110       .  S
C1626      H1631   1.110       .  S
C1626      H1632   1.111       .  S
C1633      C1634   1.404       .  A
C1633      C1638   1.412       .  A
C1633      H1640   1.084       .  S
C1634      C1635   1.410       .  A
C1635      C1636   1.401       .  A
C1635      C1642   1.509       .  S
C1636      C1637   1.407       .  A
C1636      H1641   1.085       .  S
C1637      C1638   1.419       .  A
C1638      C1639   1.506       .  S
C1639      H1643   1.111       .  S
C1639      H1644   1.110       .  S
C1639      H1645   1.110       .  S
C1642      H1646   1.111       .  S
C1642      H1647   1.109       .  S
C1642      H1648   1.111       .  S
C1649      C1650   1.404       .  A
C1649      C1654   1.410       .  A
C1649      H1656   1.084       .  S
C1650      C1651   1.412       .  A
C1651      C1652   1.403       .  A
C1651      C1658   1.509       .  S
C1652      C1653   1.407       .  A
C1652      H1657   1.084       .  S
C1653      C1654   1.417       .  A
C1654      C1655   1.506       .  S
C1655      H1659   1.111       .  S
C1655      H1660   1.110       .  S
C1655      H1661   1.110       .  S
C1658      H1662   1.109       .  S
C1658      H1663   1.111       .  S
C1658      H1664   1.111       .  S
C1665      C1666   1.405       .  A
C1665      C1670   1.406       .  A
C1665      H1672   1.085       .  S
C1666      C1667   1.416       .  A
C1667      C1668   1.406       .  A
C1667      C1674   1.507       .  S
C1668      C1669   1.406       .  A
C1668      H1673   1.084       .  S
C1669      C1670   1.422       .  A
C1670      C1671   1.509       .  S
C1671      H1675   1.111       .  S
C1671      H1676   1.110       .  S
C1671      H1677   1.110       .  S
C1674      H1678   1.111       .  S
C1674      H1679   1.109       .  S
C1674      H1680   1.111       .  S
C1681      C1682   1.403       .  A
C1681      C1686   1.406       .  A
C1681      H1688   1.084       .  S
C1682      C1683   1.417       .  A
C1683      C1684   1.410       .  A
C1683      C1690   1.507       .  S
C1684      C1685   1.408       .  A
C1684      H1689   1.083       .  S
C1685      C1686   1.423       .  A
C1686      C1687   1.509       .  S
C1687      H1691   1.111       .  S
C1687      H1692   1.110       .  S
C1687      H1693   1.110       .  S
C1690      H1694   1.111       .  S
C1690      H1695   1.110       .  S
C1690      H1696   1.110       .  S
C1697      C1698   1.405       .  A
C1697      C1702   1.412       .  A
C1697      H1704   1.084       .  S
C1698      C1699   1.413       .  A
C1699      C1700   1.400       .  A
C1699      C1706   1.508       .  S
C1700      C1701   1.405       .  A
C1700      H1705   1.085       .  S
C1701      C1702   1.418       .  A
C1702      C1703   1.506       .  S
C1703      H1707   1.111       .  S
C1703      H1708   1.110       .  S
C1703      H1709   1.110       .  S
C1706      H1710   1.111       .  S
C1706      H1711   1.108       .  S
C1706      H1712   1.110       .  S
C1713      C1714   1.408       .  A
C1713      C1718   1.409       .  A
C1713      H1720   1.084       .  S
C1714      C1715   1.421       .  A
C1715      C1716   1.400       .  A
C1715      C1722   1.510       .  S
C1716      C1717   1.402       .  A
C1716      H1721   1.084       .  S
C1717      C1718   1.415       .  A
C1718      C1719   1.506       .  S
C1719      H1723   1.111       .  S
C1719      H1724   1.110       .  S
C1719      H1725   1.110       .  S
C1722      H1726   1.110       .  S
C1722      H1727   1.110       .  S
C1722      H1728   1.111       .  S
C1729      C1730   1.401       .  A
C1729      C1734   1.404       .  A
C1729      H1736   1.084       .  S
C1730      C1731   1.412       .  A
C1731      C1732   1.409       .  A
C1731      C1738   1.506       .  S
C1732      C1733   1.406       .  A
C1732      H1737   1.083       .  S
C1733      C1734   1.418       .  A
C1734      C1735   1.509       .  S
C1735      H1739   1.111       .  S
C1735      H1740   1.111       .  S
C1735      H1741   1.108       .  S
C1738      H1742   1.110       .  S
C1738      H1743   1.109       .  S
C1738      H1744   1.110       .  S
C1745      C1746   1.405       .  A
C1745      C1750   1.411       .  A
C1745      H1752   1.084       .  S
C1746      C1747   1.418       .  A
C1747      C1748   1.406       .  A
C1747      C1754   1.509       .  S
C1748      C1749   1.408       .  A
C1748      H1753   1.084       .  S
C1749      C1750   1.421       .  A
C1750      C1751   1.507       .  S
C1751      H1755   1.111       .  S
C1751      H1756   1.110       .  S
C1751      H1757   1.110       .  S
C1754      H1758   1.110       .  S
C1754      H1759   1.109       .  S
C1754      H1760   1.111       .  S
C1761      C1762   1.405       .  A
C1761      C1766   1.398       .  A
C1761      H1768   1.084       .  S
C1762      C1763   1.418       .  A
C1763      C1764   1.412       .  A
C1763      C1770   1.506       .  S
C1764      C1765   1.406       .  A
C1764      H1769   1.084       .  S
C1765      C1766   1.413       .  A
C1766      C1767   1.510       .  S
C1767      H1771   1.111       .  S
C1767      H1772   1.110       .  S
C1767      H1773   1.109       .  S
C1770      H1774   1.110       .  S
C1770      H1775   1.110       .  S
C1770      H1776   1.111       .  S
C1777      C1778   1.402       .  A
C1777      C1782   1.410       .  A
C1777      H1784   1.084       .  S
C1778      C1779   1.409       .  A
C1779      C1780   1.400       .  A
C1779      C1786   1.510       .  S
C1780      C1781   1.407       .  A
C1780      H1785   1.084       .  S
C1781      C1782   1.418       .  A
C1782      C1783   1.506       .  S
C1783      H1787   1.111       .  S
C1783      H1788   1.110       .  S
C1783      H1789   1.110       .  S
C1786      H1790   1.110       .  S
C1786      H1791   1.111       .  S
C1786      H1792   1.110       .  S
C1793      C1794   1.405       .  A
C1793      C1798   1.404       .  A
C1793      H1800   1.084       .  S
C1794      C1795   1.416       .  A
C1795      C1796   1.409       .  A
C1795      C1802   1.507       .  S
C1796      C1797   1.406       .  A
C1796      H1801   1.084       .  S
C1797      C1798   1.412       .  A
C1798      C1799   1.507       .  S
C1799      H1803   1.111       .  S
C1799      H1804   1.111       .  S
C1799      H1805   1.110       .  S
C1802      H1806   1.110       .  S
C1802      H1807   1.110       .  S
C1802      H1808   1.111       .  S
C1809      C1810   1.402       .  A
C1809      C1814   1.405       .  A
C1809      H1816   1.084       .  S
C1810      C1811   1.414       .  A
C1811      C1812   1.405       .  A
C1811      C1818   1.507       .  S
C1812      C1813   1.404       .  A
C1812      H1817   1.084       .  S
C1813      C1814   1.416       .  A
C1814      C1815   1.508       .  S
C1815      H1819   1.111       .  S
C1815      H1820   1.109       .  S
C1815      H1821   1.110       .  S
C1818      H1822   1.109       .  S
C1818      H1823   1.110       .  S
C1818      H1824   1.111       .  S
C1825      C1826   1.403       .  A
C1825      C1830   1.408       .  A
C1825      H1832   1.084       .  S
C1826      C1827   1.416       .  A
C1827      C1828   1.405       .  A
C1827      C1834   1.507       .  S
C1828      C1829   1.402       .  A
C1828      H1833   1.084       .  S
C1829      C1830   1.415       .  A
C1830      C1831   1.508       .  S
C1831      H1835   1.111       .  S
C1831      H1836   1.109       .  S
C1831      H1837   1.111       .  S
C1834      H1838   1.109       .  S
C1834      H1839   1.110       .  S
C1834      H1840   1.110       .  S
C1841      C1842   1.401       .  A
C1841      C1846   1.405       .  A
C1841      H1848   1.084       .  S
C1842      C1843   1.413       .  A
C1843      C1844   1.404       .  A
C1843      C1850   1.508       .  S
C1844      C1845   1.402       .  A
C1844      H1849   1.084       .  S
C1845      C1846   1.415       .  A
C1846      C1847   1.507       .  S
C1847      H1851   1.111       .  S
C1847      H1852   1.110       .  S
C1847      H1853   1.109       .  S
C1850      H1854   1.110       .  S
C1850      H1855   1.109       .  S
C1850      H1856   1.111       .  S
C1857      C1858   1.406       .  A
C1857      C1862   1.404       .  A
C1857      H1864   1.084       .  S
C1858      C1859   1.419       .  A
C1859      C1860   1.413       .  A
C1859      C1866   1.506       .  S
C1860      C1861   1.407       .  A
C1860      H1865   1.084       .  S
C1861      C1862   1.417       .  A
C1862      C1863   1.509       .  S
C1863      H1867   1.110       .  S
C1863      H1868   1.109       .  S
C1863      H1869   1.109       .  S
C1866      H1870   1.110       .  S
C1866      H1871   1.110       .  S
C1866      H1872   1.111       .  S
C1873      C1874   1.403       .  A
C1873      C1878   1.410       .  A
C1873      H1880   1.084       .  S
C1874      C1875   1.415       .  A
C1875      C1876   1.404       .  A
C1875      C1882   1.509       .  S
C1876      C1877   1.407       .  A
C1876      H1881   1.084       .  S
C1877      C1878   1.421       .  A
C1878      C1879   1.507       .  S
C1879      H1883   1.111       .  S
C1879      H1884   1.110       .  S
C1879      H1885   1.110       .  S
C1882      H1886   1.110       .  S
C1882      H1887   1.109       .  S
C1882      H1888   1.111       .  S
C1889      C1890   1.407       .  A
C1889      C1894   1.409       .  A
C1889      H1896   1.084       .  S
C1890      C1891   1.416       .  A
C1891      C1892   1.408       .  A
C1891      C1898   1.507       .  S
C1892      C1893   1.406       .  A
C1892      H1897   1.084       .  S
C1893      C1894   1.417       .  A
C1894      C1895   1.507       .  S
C1895      H1899   1.111       .  S
C1895      H1900   1.110       .  S
C1895      H1901   1.110       .  S
C1898      H1902   1.110       .  S
C1898      H1903   1.110       .  S
C1898      H1904   1.111       .  S
C1905      C1906   1.403       .  A
C1905      C1910   1.403       .  A
C1905      H1912   1.085       .  S
C1906      C1907   1.415       .  A
C1907      C1908   1.412       .  A
C1907      C1914   1.506       .  S
C1908      C1909   1.410       .  A
C1908      H1913   1.083       .  S
C1909      C1910   1.421       .  A
C1910      C1911   1.509       .  S
C1911      H1915   1.111       .  S
C1911      H1916   1.110       .  S
C1911      H1917   1.110       .  S
C1914      H1918   1.109       .  S
C1914      H1919   1.111       .  S
C1914      H1920   1.111       .  S
C1921      C1922   1.401       .  A
C1921      C1926   1.405       .  A
C1921      H1928   1.084       .  S
C1922      C1923   1.414       .  A
C1923      C1924   1.406       .  A
C1923      C1930   1.508       .  S
C1924      C1925   1.404       .  A
C1924      H1929   1.084       .  S
C1925      C1926   1.416       .  A
C1926      C1927   1.508       .  S
C1927      H1931   1.111       .  S
C1927      H1932   1.109       .  S
C1927      H1933   1.110       .  S
C1930      H1934   1.109       .  S
C1930      H1935   1.111       .  S
C1930      H1936   1.111       .  S
C1937      C1938   1.403       .  A
C1937      C1942   1.403       .  A
C1937      H1944   1.084       .  S
C1938      C1939   1.414       .  A
C1939      C1940   1.407       .  A
C1939      C1946   1.507       .  S
C1940      C1941   1.405       .  A
C1940      H1945   1.084       .  S
C1941      C1942   1.413       .  A
C1942      C1943   1.508       .  S
C1943      H1947   1.111       .  S
C1943      H1948   1.111       .  S
C1943      H1949   1.110       .  S
C1946      H1950   1.111       .  S
C1946      H1951   1.110       .  S
C1946      H1952   1.111       .  S
C1953      C1954   1.406       .  A
C1953      C1958   1.413       .  A
C1953      H1960   1.084       .  S
C1954      C1955   1.417       .  A
C1955      C1956   1.404       .  A
C1955      C1962   1.510       .  S
C1956      C1957   1.407       .  A
C1956      H1961   1.084       .  S
C1957      C1958   1.420       .  A
C1958      C1959   1.506       .  S
C1959      H1963   1.111       .  S
C1959      H1964   1.110       .  S
C1959      H1965   1.110       .  S
C1962      H1966   1.111       .  S
C1962      H1967   1.110       .  S
C1962      H1968   1.111       .  S
C1969      C1970   1.402       .  A
C1969      C1974   1.404       .  A
C1969      H1976   1.085       .  S
C1970      C1971   1.415       .  A
C1971      C1972   1.407       .  A
C1971      C1978   1.508       .  S
C1972      C1973   1.404       .  A
C1972      H1977   1.084       .  S
C1973      C1974   1.417       .  A
C1974      C1975   1.508       .  S
C1975      H1979   1.111       .  S
C1975      H1980   1.108       .  S
C1975      H1981   1.110       .  S
C1978      H1982   1.109       .  S
C1978      H1983   1.110       .  S
C1978      H1984   1.111       .  S
C1985      C1986   1.409       .  A
C1985      C1990   1.413       .  A
C1985      H1992   1.083       .  S
C1986      C1987   1.424       .  A
C1987      C1988   1.404       .  A
C1987      C1994   1.510       .  S
C1988      C1989   1.403       .  A
C1988      H1993   1.084       .  S
C1989      C1990   1.417       .  A
C1990      C1991   1.506       .  S
C1991      H1995   1.111       .  S
C1991      H1996   1.110   1_556  S
C1991      H1997   1.110       .  S
C1994      H1998   1.110       .  S
C1994      H1999   1.111       .  S
C1994      H2000   1.111       .  S
C2001      C2002   1.406       .  A
C2001      C2006   1.404       .  A
C2001      H2008   1.084       .  S
C2002      C2003   1.420       .  A
C2003      C2004   1.410       .  A
C2003      C2010   1.507       .  S
C2004      C2005   1.405       .  A
C2004      H2009   1.085       .  S
C2005      C2006   1.414       .  A
C2006      C2007   1.508       .  S
C2007      H2011   1.111       .  S
C2007      H2012   1.109       .  S
C2007      H2013   1.110       .  S
C2010      H2014   1.111       .  S
C2010      H2015   1.109       .  S
C2010      H2016   1.111       .  S
C2017      C2018   1.401       .  A
C2017      C2022   1.404       .  A
C2017      H2024   1.084       .  S
C2018      C2019   1.414       .  A
C2019      C2020   1.406       .  A
C2019      C2026   1.507       .  S
C2020      C2021   1.403       .  A
C2020      H2025   1.084       .  S
C2021      C2022   1.414       .  A
C2022      C2023   1.508       .  S
C2023      H2027   1.111       .  S
C2023      H2028   1.110       .  S
C2023      H2029   1.109       .  S
C2026      H2030   1.110       .  S
C2026      H2031   1.109       .  S
C2026      H2032   1.111       .  S
C2033      C2034   1.402       .  A
C2033      C2038   1.411       .  A
C2033      H2040   1.084       .  S
C2034      C2035   1.415       .  A
C2035      C2036   1.408       .  A
C2035      C2042   1.508       .  S
C2036      C2037   1.409       .  A
C2036      H2041   1.083       .  S
C2037      C2038   1.422       .  A
C2038      C2039   1.507       .  S
C2039      H2043   1.111       .  S
C2039      H2044   1.111       .  S
C2039      H2045   1.110       .  S
C2042      H2046   1.109       .  S
C2042      H2047   1.111       .  S
C2042      H2048   1.111       .  S
C2049      C2050   1.402       .  A
C2049      C2054   1.406       .  A
C2049      H2056   1.084       .  S
C2050      C2051   1.414       .  A
C2051      C2052   1.409       .  A
C2051      C2058   1.507       .  S
C2052      C2053   1.404       .  A
C2052      H2057   1.084       .  S
C2053      C2054   1.416       .  A
C2054      C2055   1.508       .  S
C2055      H2059   1.111       .  S
C2055      H2060   1.109       .  S
C2055      H2061   1.110       .  S
C2058      H2062   1.109       .  S
C2058      H2063   1.111       .  S
C2058      H2064   1.111       .  S
C2065      C2066   1.404       .  A
C2065      C2070   1.408       .  A
C2065      H2072   1.084       .  S
C2066      C2067   1.417       .  A
C2067      C2068   1.405       .  A
C2067      C2074   1.509       .  S
C2068      C2069   1.401       .  A
C2068      H2073   1.084       .  S
C2069      C2070   1.414       .  A
C2070      C2071   1.507       .  S
C2071      H2075   1.111       .  S
C2071      H2076   1.110       .  S
C2071      H2077   1.109       .  S
C2074      H2078   1.110       .  S
C2074      H2079   1.109       .  S
C2074      H2080   1.111       .  S
C2081      C2082   1.407       .  A
C2081      C2086   1.402       .  A
C2081      H2088   1.084       .  S
C2082      C2083   1.420       .  A
C2083      C2084   1.408       .  A
C2083      C2090   1.506       .  S
C2084      C2085   1.404       .  A
C2084      H2089   1.084       .  S
C2085      C2086   1.416       .  A
C2086      C2087   1.510       .  S
C2087      H2091   1.111       .  S
C2087      H2092   1.109       .  S
C2087      H2093   1.110       .  S
C2090      H2094   1.110       .  S
C2090      H2095   1.110   1_655  S
C2090      H2096   1.111       .  S
C2097      C2098   1.402       .  A
C2097      C2102   1.408       .  A
C2097      H2104   1.084       .  S
C2098      C2099   1.414       .  A
C2099      C2100   1.405       .  A
C2099      C2106   1.509       .  S
C2100      C2101   1.410       .  A
C2100      H2105   1.083       .  S
C2101      C2102   1.421       .  A
C2102      C2103   1.506       .  S
C2103      H2107   1.111       .  S
C2103      H2108   1.110       .  S
C2103      H2109   1.110       .  S
C2106      H2110   1.110       .  S
C2106      H2111   1.109       .  S
C2106      H2112   1.111       .  S
C2113      C2114   1.405       .  A
C2113      C2118   1.400       .  A
C2113      H2120   1.084       .  S
C2114      C2115   1.418       .  A
C2115      C2116   1.412       .  A
C2115      C2122   1.506       .  S
C2116      C2117   1.408       .  A
C2116      H2121   1.084       .  S
C2117      C2118   1.418       .  A
C2118      C2119   1.510       .  S
C2119      H2123   1.111       .  S
C2119      H2124   1.111       .  S
C2119      H2125   1.109       .  S
C2122      H2126   1.111       .  S
C2122      H2127   1.109       .  S
C2122      H2128   1.111       .  S
C2129      C2130   1.406       .  A
C2129      C2134   1.409       .  A
C2129      H2136   1.084       .  S
C2130      C2131   1.417       .  A
C2131      C2132   1.402       .  A
C2131      C2138   1.510       .  S
C2132      C2133   1.406       .  A
C2132      H2137   1.084       .  S
C2133      C2134   1.419       .  A
C2134      C2135   1.507       .  S
C2135      H2139   1.111       .  S
C2135      H2140   1.110       .  S
C2135      H2141   1.110       .  S
C2138      H2142   1.110       .  S
C2138      H2143   1.110       .  S
C2138      H2144   1.111       .  S
C2145      C2146   1.401       .  A
C2145      C2150   1.401       .  A
C2145      H2152   1.084       .  S
C2146      C2147   1.413       .  A
C2147      C2148   1.409       .  A
C2147      C2154   1.506       .  S
C2148      C2149   1.407       .  A
C2148      H2153   1.084       .  S
C2149      C2150   1.419       .  A
C2150      C2151   1.510       .  S
C2151      H2155   1.111       .  S
C2151      H2156   1.109       .  S
C2151      H2157   1.111       .  S
C2154      H2158   1.110       .  S
C2154      H2159   1.110       .  S
C2154      H2160   1.110       .  S
C2161      C2162   1.408       .  A
C2161      C2166   1.405       .  A
C2161      H2168   1.083       .  S
C2162      C2163   1.421       .  A
C2163      C2164   1.409       .  A
C2163      C2170   1.507       .  S
C2164      C2165   1.403       .  A
C2164      H2169   1.084       .  S
C2165      C2166   1.412       .  A
C2166      C2167   1.508       .  S
C2167      H2171   1.111       .  S
C2167      H2172   1.111       .  S
C2167      H2173   1.109       .  S
C2170      H2174   1.110       .  S
C2170      H2175   1.110       .  S
C2170      H2176   1.111       .  S
C2177      C2178   1.406       .  A
C2177      C2182   1.398       .  A
C2177      H2184   1.084       .  S
C2178      C2179   1.419       .  A
C2179      C2180   1.413       .  A
C2179      C2186   1.506       .  S
C2180      C2181   1.406       .  A
C2180      H2185   1.084       .  S
C2181      C2182   1.410       .  A
C2182      C2183   1.509       .  S
C2183      H2187   1.111       .  S
C2183      H2188   1.108       .  S
C2183      H2189   1.110       .  S
C2186      H2190   1.110       .  S
C2186      H2191   1.111       .  S
C2186      H2192   1.111       .  S
C2193      C2194   1.407       .  A
C2193      C2198   1.402       .  A
C2193      H2200   1.083       .  S
C2194      C2195   1.421       .  A
C2195      C2196   1.409       .  A
C2195      C2202   1.507       .  S
C2196      C2197   1.403       .  A
C2196      H2201   1.084       .  S
C2197      C2198   1.414       .  A
C2198      C2199   1.509       .  S
C2199      H2203   1.111       .  S
C2199      H2204   1.111       .  S
C2199      H2205   1.108       .  S
C2202      H2206   1.111       .  S
C2202      H2207   1.109       .  S
C2202      H2208   1.111       .  S
C2209      C2210   1.403       .  A
C2209      C2214   1.406       .  A
C2209      H2216   1.084       .  S
C2210      C2211   1.416       .  A
C2211      C2212   1.409       .  A
C2211      C2218   1.507       .  S
C2212      C2213   1.404       .  A
C2212      H2217   1.084       .  S
C2213      C2214   1.418       .  A
C2214      C2215   1.509       .  S
C2215      H2219   1.111       .  S
C2215      H2220   1.110       .  S
C2215      H2221   1.109       .  S
C2218      H2222   1.111       .  S
C2218      H2223   1.109       .  S
C2218      H2224   1.111       .  S
C2225      C2226   1.402       .  A
C2225      C2230   1.404       .  A
C2225      H2232   1.084       .  S
C2226      C2227   1.418       .  A
C2227      C2228   1.408       .  A
C2227      C2234   1.508       .  S
C2228      C2229   1.404       .  A
C2228      H2233   1.085       .  S
C2229      C2230   1.414       .  A
C2230      C2231   1.508       .  S
C2231      H2235   1.111       .  S
C2231      H2236   1.109       .  S
C2231      H2237   1.110       .  S
C2234      H2238   1.108       .  S
C2234      H2239   1.111       .  S
C2234      H2240   1.111       .  S
C2241      C2242   1.404       .  A
C2241      C2246   1.407       .  A
C2241      H2248   1.083       .  S
C2242      C2243   1.413       .  A
C2243      C2244   1.405       .  A
C2243      C2250   1.508       .  S
C2244      C2245   1.405       .  A
C2244      H2249   1.084       .  S
C2245      C2246   1.415       .  A
C2246      C2247   1.507       .  S
C2247      H2251   1.110       .  S
C2247      H2252   1.110       .  S
C2247      H2253   1.111       .  S
C2250      H2254   1.111       .  S
C2250      H2255   1.110       .  S
C2250      H2256   1.111       .  S
C2257      C2258   1.403       .  A
C2257      C2262   1.407       .  A
C2257      H2264   1.084       .  S
C2258      C2259   1.414       .  A
C2259      C2260   1.405       .  A
C2259      C2266   1.508       .  S
C2260      C2261   1.402       .  A
C2260      H2265   1.084       .  S
C2261      C2262   1.415       .  A
C2262      C2263   1.508       .  S
C2263      H2267   1.111       .  S
C2263      H2268   1.109       .  S
C2263      H2269   1.111       .  S
C2266      H2270   1.109       .  S
C2266      H2271   1.110       .  S
C2266      H2272   1.111       .  S
C2273      C2274   1.402       .  A
C2273      C2278   1.405       .  A
C2273      H2280   1.084       .  S
C2274      C2275   1.412       .  A
C2275      C2276   1.404       .  A
C2275      C2282   1.508       .  S
C2276      C2277   1.404       .  A
C2276      H2281   1.084       .  S
C2277      C2278   1.413       .  A
C2278      C2279   1.506       .  S
C2279      H2283   1.111       .  S
C2279      H2284   1.110       .  S
C2279      H2285   1.111       .  S
C2282      H2286   1.110       .  S
C2282      H2287   1.110       .  S
C2282      H2288   1.111       .  S
C2289      C2290   1.407       .  A
C2289      C2294   1.406       .  A
C2289      H2296   1.084       .  S
C2290      C2291   1.417       .  A
C2291      C2292   1.408       .  A
C2291      C2298   1.507       .  S
C2292      C2293   1.403       .  A
C2292      H2297   1.084       .  S
C2293      C2294   1.411       .  A
C2294      C2295   1.507       .  S
C2295      H2299   1.111       .  S
C2295      H2300   1.111       .  S
C2295      H2301   1.110       .  S
C2298      H2302   1.110       .  S
C2298      H2303   1.110       .  S
C2298      H2304   1.111       .  S
C2305      C2306   1.409       .  A
C2305      C2310   1.409       .  A
C2305      H2312   1.084       .  S
C2306      C2307   1.423       .  A
C2307      C2308   1.405       .  A
C2307      C2314   1.509       .  S
C2308      C2309   1.402       .  A
C2308      H2313   1.085       .  S
C2309      C2310   1.413       .  A
C2310      C2311   1.507       .  S
C2311      H2315   1.111       .  S
C2311      H2316   1.110       .  S
C2311      H2317   1.111       .  S
C2314      H2318   1.110       .  S
C2314      H2319   1.110       .  S
C2314      H2320   1.111       .  S
C2321      C2322   1.405       .  A
C2321      C2326   1.402       .  A
C2321      H2328   1.083       .  S
C2322      C2323   1.420       .  A
C2323      C2324   1.412       .  A
C2323      C2330   1.507       .  S
C2324      C2325   1.407       .  A
C2324      H2329   1.084       .  S
C2325      C2326   1.420       .  A
C2326      C2327   1.510       .  S
C2327      H2331   1.111       .  S
C2327      H2332   1.110       .  S
C2327      H2333   1.110       .  S
C2330      H2334   1.110   1_554  S
C2330      H2335   1.110       .  S
C2330      H2336   1.111       .  S
C2337      C2338   1.408       .  A
C2337      C2342   1.404       .  A
C2337      H2344   1.083       .  S
C2338      C2339   1.421       .  A
C2339      C2340   1.409       .  A
C2339      C2346   1.507       .  S
C2340      C2341   1.403       .  A
C2340      H2345   1.084       .  S
C2341      C2342   1.413       .  A
C2342      C2343   1.509       .  S
C2343      H2347   1.111       .  S
C2343      H2348   1.109       .  S
C2343      H2349   1.111       .  S
C2346      H2350   1.110       .  S
C2346      H2351   1.110       .  S
C2346      H2352   1.111       .  S
C2353      C2354   1.404       .  A
C2353      C2358   1.408       .  A
C2353      H2360   1.084       .  S
C2354      C2355   1.418       .  A
C2355      C2356   1.406       .  A
C2355      C2362   1.509       .  S
C2356      C2357   1.402       .  A
C2356      H2361   1.084       .  S
C2357      C2358   1.416       .  A
C2358      C2359   1.508       .  S
C2359      H2363   1.111       .  S
C2359      H2364   1.109       .  S
C2359      H2365   1.110       .  S
C2362      H2366   1.109       .  S
C2362      H2367   1.110       .  S
C2362      H2368   1.111       .  S
C2369      C2370   1.410       .  A
C2369      C2374   1.412       .  A
C2369      H2376   1.083       .  S
C2370      C2371   1.423       .  A
C2371      C2372   1.404       .  A
C2371      C2378   1.509       .  S
C2372      C2373   1.401       .  A
C2372      H2377   1.084       .  S
C2373      C2374   1.415       .  A
C2374      C2375   1.506       .  S
C2375      H2379   1.111       .  S
C2375      H2380   1.111       .  S
C2375      H2381   1.110       .  S
C2378      H2382   1.110       .  S
C2378      H2383   1.110       .  S
C2378      H2384   1.111       .  S
C2385      C2386   1.405       .  A
C2385      C2390   1.406       .  A
C2385      H2392   1.084       .  S
C2386      C2387   1.416       .  A
C2387      C2388   1.410       .  A
C2387      C2394   1.507       .  S
C2388      C2389   1.406       .  A
C2388      H2393   1.084       .  S
C2389      C2390   1.416       .  A
C2390      C2391   1.508       .  S
C2391      H2395   1.111       .  S
C2391      H2396   1.111       .  S
C2391      H2397   1.110       .  S
C2394      H2398   1.110       .  S
C2394      H2399   1.110       .  S
C2394      H2400   1.111       .  S
C2401      C2402   1.401       .  A
C2401      C2406   1.404       .  A
C2401      H2408   1.085       .  S
C2402      C2403   1.414       .  A
C2403      C2404   1.406       .  A
C2403      C2410   1.507       .  S
C2404      C2405   1.403       .  A
C2404      H2409   1.084       .  S
C2405      C2406   1.417       .  A
C2406      C2407   1.509       .  S
C2407      H2411   1.111       .  S
C2407      H2412   1.109       .  S
C2407      H2413   1.110       .  S
C2410      H2414   1.109       .  S
C2410      H2415   1.110       .  S
C2410      H2416   1.111       .  S
C2417      C2418   1.401       .  A
C2417      C2422   1.404       .  A
C2417      H2424   1.084       .  S
C2418      C2419   1.413       .  A
C2419      C2420   1.406       .  A
C2419      C2426   1.508       .  S
C2420      C2421   1.403       .  A
C2420      H2425   1.083       .  S
C2421      C2422   1.417       .  A
C2422      C2423   1.509       .  S
C2423      H2427   1.111       .  S
C2423      H2428   1.110       .  S
C2423      H2429   1.109       .  S
C2426      H2430   1.110       .  S
C2426      H2431   1.109       .  S
C2426      H2432   1.110       .  S
C2433      C2434   1.403       .  A
C2433      C2438   1.402       .  A
C2433      H2440   1.084       .  S
C2434      C2435   1.416       .  A
C2435      C2436   1.409       .  A
C2435      C2442   1.507       .  S
C2436      C2437   1.408       .  A
C2436      H2441   1.084       .  S
C2437      C2438   1.420       .  A
C2438      C2439   1.510       .  S
C2439      H2443   1.111       .  S
C2439      H2444   1.111       .  S
C2439      H2445   1.110       .  S
C2442      H2446   1.110       .  S
C2442      H2447   1.110       .  S
C2442      H2448   1.111       .  S
C2449      C2450   1.407       .  A
C2449      C2454   1.402       .  A
C2449      H2456   1.083       .  S
C2450      C2451   1.421       .  A
C2451      C2452   1.411       .  A
C2451      C2458   1.507       .  S
C2452      C2453   1.405       .  A
C2452      H2457   1.084       .  S
C2453      C2454   1.415       .  A
C2454      C2455   1.509       .  S
C2455      H2459   1.111       .  S
C2455      H2460   1.109       .  S
C2455      H2461   1.110       .  S
C2458      H2462   1.110       .  S
C2458      H2463   1.110       .  S
C2458      H2464   1.111       .  S
C2465      C2466   1.410       .  A
C2465      C2470   1.410       .  A
C2465      H2472   1.084       .  S
C2466      C2467   1.422       .  A
C2467      C2468   1.404       .  A
C2467      C2474   1.509       .  S
C2468      C2469   1.402       .  A
C2468      H2473   1.085       .  S
C2469      C2470   1.414       .  A
C2470      C2471   1.506       .  S
C2471      H2475   1.111       .  S
C2471      H2476   1.110       .  S
C2471      H2477   1.110       .  S
C2474      H2478   1.111       .  S
C2474      H2479   1.110       .  S
C2474      H2480   1.111       .  S
C2481      C2482   1.404       .  A
C2481      C2486   1.409       .  A
C2481      H2488   1.084       .  S
C2482      C2483   1.413       .  A
C2483      C2484   1.403       .  A
C2483      C2490   1.508       .  S
C2484      C2485   1.406       .  A
C2484      H2489   1.084       .  S
C2485      C2486   1.420       .  A
C2486      C2487   1.507       .  S
C2487      H2491   1.111       .  S
C2487      H2492   1.110       .  S
C2487      H2493   1.110       .  S
C2490      H2494   1.111       .  S
C2490      H2495   1.109       .  S
C2490      H2496   1.111       .  S
C2497      C2498   1.401       .  A
C2497      C2502   1.403       .  A
C2497      H2504   1.084       .  S
C2498      C2499   1.414       .  A
C2499      C2500   1.405       .  A
C2499      C2506   1.507       .  S
C2500      C2501   1.402       .  A
C2500      H2505   1.084       .  S
C2501      C2502   1.414       .  A
C2502      C2503   1.508       .  S
C2503      H2507   1.111       .  S
C2503      H2508   1.108       .  S
C2503      H2509   1.110       .  S
C2506      H2510   1.109       .  S
C2506      H2511   1.110       .  S
C2506      H2512   1.111       .  S
C2513      C2514   1.404       .  A
C2513      C2518   1.410       .  A
C2513      H2520   1.084       .  S
C2514      C2515   1.415       .  A
C2515      C2516   1.405       .  A
C2515      C2522   1.508       .  S
C2516      C2517   1.407       .  A
C2516      H2521   1.084       .  S
C2517      C2518   1.421       .  A
C2518      C2519   1.507       .  S
C2519      H2523   1.111       .  S
C2519      H2524   1.110       .  S
C2519      H2525   1.110       .  S
C2522      H2526   1.110       .  S
C2522      H2527   1.109       .  S
C2522      H2528   1.111       .  S
C2529      C2530   1.404       .  A
C2529      C2534   1.411       .  A
C2529      H2536   1.084       .  S
C2530      C2531   1.414       .  A
C2531      C2532   1.404       .  A
C2531      C2538   1.509       .  S
C2532      C2533   1.408       .  A
C2532      H2537   1.084       .  S
C2533      C2534   1.421       .  A
C2534      C2535   1.507       .  S
C2535      H2539   1.111       .  S
C2535      H2540   1.110       .  S
C2535      H2541   1.110       .  S
C2538      H2542   1.109       .  S
C2538      H2543   1.110       .  S
C2538      H2544   1.111       .  S
C2545      C2546   1.405       .  A
C2545      C2550   1.407       .  A
C2545      H2552   1.084       .  S
C2546      C2547   1.413       .  A
C2547      C2548   1.403       .  A
C2547      C2554   1.507       .  S
C2548      C2549   1.404       .  A
C2548      H2553   1.084       .  S
C2549      C2550   1.415       .  A
C2550      C2551   1.507       .  S
C2551      H2555   1.111       .  S
C2551      H2556   1.110       .  S
C2551      H2557   1.110       .  S
C2554      H2558   1.110       .  S
C2554      H2559   1.110       .  S
C2554      H2560   1.111       .  S
C2561      C2562   1.405       .  A
C2561      C2566   1.403       .  A
C2561      H2568   1.084       .  S
C2562      C2563   1.418       .  A
C2563      C2564   1.411       .  A
C2563      C2570   1.507       .  S
C2564      C2565   1.406       .  A
C2564      H2569   1.084       .  S
C2565      C2566   1.419       .  A
C2566      C2567   1.510       .  S
C2567      H2571   1.111       .  S
C2567      H2572   1.109       .  S
C2567      H2573   1.111       .  S
C2570      H2574   1.110       .  S
C2570      H2575   1.111       .  S
C2570      H2576   1.111       .  S
C2577      C2578   1.402       .  A
C2577      C2582   1.402       .  A
C2577      H2584   1.084       .  S
C2578      C2579   1.416       .  A
C2579      C2580   1.412       .  A
C2579      C2586   1.506       .  S
C2580      C2581   1.409       .  A
C2580      H2585   1.084       .  S
C2581      C2582   1.422       .  A
C2582      C2583   1.509       .  S
C2583      H2587   1.111       .  S
C2583      H2588   1.110       .  S
C2583      H2589   1.110       .  S
C2586      H2590   1.110       .  S
C2586      H2591   1.110       .  S
C2586      H2592   1.111       .  S
C2593      C2594   1.404       .  A
C2593      C2598   1.404       .  A
C2593      H2600   1.084       .  S
C2594      C2595   1.418       .  A
C2595      C2596   1.403       .  A
C2595      C2602   1.508       .  S
C2596      C2597   1.401       .  A
C2596      H2601   1.084       .  S
C2597      C2598   1.412       .  A
C2598      C2599   1.508       .  S
C2599      H2603   1.111       .  S
C2599      H2604   1.109       .  S
C2599      H2605   1.110       .  S
C2602      H2606   1.108       .  S
C2602      H2607   1.110       .  S
C2602      H2608   1.111       .  S
C2609      C2610   1.405       .  A
C2609      C2614   1.408       .  A
C2609      H2616   1.085       .  S
C2610      C2611   1.414       .  A
C2611      C2612   1.407       .  A
C2611      C2618   1.507       .  S
C2612      C2613   1.405       .  A
C2612      H2617   1.084       .  S
C2613      C2614   1.414       .  A
C2614      C2615   1.507       .  S
C2615      H2619   1.111       .  S
C2615      H2620   1.110       .  S
C2615      H2621   1.110       .  S
C2618      H2622   1.111       .  S
C2618      H2623   1.110       .  S
C2618      H2624   1.111       .  S
C2625      C2626   1.405       .  A
C2625      C2630   1.412       .  A
C2625      H2632   1.084       .  S
C2626      C2627   1.416       .  A
C2627      C2628   1.405       .  A
C2627      C2634   1.509       .  S
C2628      C2629   1.407       .  A
C2628      H2633   1.084       .  S
C2629      C2630   1.421       .  A
C2630      C2631   1.507       .  S
C2631      H2635   1.111       .  S
C2631      H2636   1.110       .  S
C2631      H2637   1.110       .  S
C2634      H2638   1.111       .  S
C2634      H2639   1.109       .  S
C2634      H2640   1.111       .  S
C2641      C2642   1.407       .  A
C2641      C2646   1.404       .  A
C2641      H2648   1.084       .  S
C2642      C2643   1.420       .  A
C2643      C2644   1.410       .  A
C2643      C2650   1.507       .  S
C2644      C2645   1.404       .  A
C2644      H2649   1.084       .  S
C2645      C2646   1.416       .  A
C2646      C2647   1.509       .  S
C2647      H2651   1.111       .  S
C2647      H2652   1.111       .  S
C2647      H2653   1.109       .  S
C2650      H2654   1.110       .  S
C2650      H2655   1.110       .  S
C2650      H2656   1.111       .  S
C2657      C2658   1.402       .  A
C2657      C2662   1.405       .  A
C2657      H2664   1.084       .  S
C2658      C2659   1.415       .  A
C2659      C2660   1.405       .  A
C2659      C2666   1.509       .  S
C2660      C2661   1.403       .  A
C2660      H2665   1.084       .  S
C2661      C2662   1.418       .  A
C2662      C2663   1.508       .  S
C2663      H2667   1.111       .  S
C2663      H2668   1.110       .  S
C2663      H2669   1.109       .  S
C2666      H2670   1.111       .  S
C2666      H2671   1.109       .  S
C2666      H2672   1.111       .  S
C2673      C2674   1.401       .  A
C2673      C2678   1.407       .  A
C2673      H2680   1.085       .  S
C2674      C2675   1.413       .  A
C2675      C2676   1.405       .  A
C2675      C2682   1.507       .  S
C2676      C2677   1.403       .  A
C2676      H2681   1.084       .  S
C2677      C2678   1.417       .  A
C2678      C2679   1.508       .  S
C2679      H2683   1.111       .  S
C2679      H2684   1.109       .  S
C2679      H2685   1.110       .  S
C2682      H2686   1.109       .  S
C2682      H2687   1.110       .  S
C2682      H2688   1.111       .  S
C2689      C2690   1.404       .  A
C2689      C2694   1.405       .  A
C2689      H2696   1.084       .  S
C2690      C2691   1.415       .  A
C2691      C2692   1.407       .  A
C2691      C2698   1.508       .  S
C2692      C2693   1.405       .  A
C2692      H2697   1.084       .  S
C2693      C2694   1.414       .  A
C2694      C2695   1.507       .  S
C2695      H2699   1.111       .  S
C2695      H2700   1.110       .  S
C2695      H2701   1.111       .  S
C2698      H2702   1.110       .  S
C2698      H2703   1.111       .  S
C2698      H2704   1.111       .  S
C2705      C2706   1.405       .  A
C2705      C2710   1.405       .  A
C2705      H2712   1.084       .  S
C2706      C2707   1.414       .  A
C2707      C2708   1.405       .  A
C2707      C2714   1.507       .  S
C2708      C2709   1.402       .  A
C2708      H2713   1.085       .  S
C2709      C2710   1.412       .  A
C2710      C2711   1.506       .  S
C2711      H2715   1.111       .  S
C2711      H2716   1.110       .  S
C2711      H2717   1.110       .  S
C2714      H2718   1.111       .  S
C2714      H2719   1.110       .  S
C2714      H2720   1.111       .  S
C2721      C2722   1.404       .  A
C2721      C2726   1.402       .  A
C2721      H2728   1.084       .  S
C2722      C2723   1.417       .  A
C2723      C2724   1.410       .  A
C2723      C2730   1.506       .  S
C2724      C2725   1.408       .  A
C2724      H2729   1.084       .  S
C2725      C2726   1.420       .  A
C2726      C2727   1.509       .  S
C2727      H2731   1.111       .  S
C2727      H2732   1.110       .  S
C2727      H2733   1.110       .  S
C2730      H2734   1.110       .  S
C2730      H2735   1.110       .  S
C2730      H2736   1.111       .  S
C2737      C2738   1.401       .  A
C2737      C2742   1.403       .  A
C2737      H2744   1.084       .  S
C2738      C2739   1.415       .  A
C2739      C2740   1.406       .  A
C2739      C2746   1.507       .  S
C2740      C2741   1.403       .  A
C2740      H2745   1.084       .  S
C2741      C2742   1.415       .  A
C2742      C2743   1.508       .  S
C2743      H2747   1.111       .  S
C2743      H2748   1.110       .  S
C2743      H2749   1.106       .  S
C2746      H2750   1.110       .  S
C2746      H2751   1.109       .  S
C2746      H2752   1.111       .  S
C2753      C2754   1.403       .  A
C2753      C2758   1.403       .  A
C2753      H2760   1.084       .  S
C2754      C2755   1.415       .  A
C2755      C2756   1.406       .  A
C2755      C2762   1.506       .  S
C2756      C2757   1.404       .  A
C2756      H2761   1.084       .  S
C2757      C2758   1.413       .  A
C2758      C2759   1.507       .  S
C2759      H2763   1.111       .  S
C2759      H2764   1.110       .  S
C2759      H2765   1.110       .  S
C2762      H2766   1.110       .  S
C2762      H2767   1.108       .  S
C2762      H2768   1.111       .  S
C2769      C2770   1.405       .  A
C2769      C2774   1.401       .  A
C2769      H2776   1.083       .  S
C2770      C2771   1.419       .  A
C2771      C2772   1.409       .  A
C2771      C2778   1.507       .  S
C2772      C2773   1.406       .  A
C2772      H2777   1.084       .  S
C2773      C2774   1.419       .  A
C2774      C2775   1.510       .  S
C2775      H2779   1.111       .  S
C2775      H2780   1.110       .  S
C2775      H2781   1.110       .  S
C2778      H2782   1.110       .  S
C2778      H2783   1.110       .  S
C2778      H2784   1.111       .  S
C2785      C2786   1.404       .  A
C2785      C2790   1.406       .  A
C2785      H2792   1.084       .  S
C2786      C2787   1.412       .  A
C2787      C2788   1.403       .  A
C2787      C2794   1.507       .  S
C2788      C2789   1.404       .  A
C2788      H2793   1.085       .  S
C2789      C2790   1.414       .  A
C2790      C2791   1.507       .  S
C2791      H2795   1.111       .  S
C2791      H2796   1.110       .  S
C2791      H2797   1.110       .  S
C2794      H2798   1.110       .  S
C2794      H2799   1.110       .  S
C2794      H2800   1.111       .  S
C2801      C2802   1.407       .  A
C2801      C2806   1.403       .  A
C2801      H2808   1.084       .  S
C2802      C2803   1.416       .  A
C2803      C2804   1.405       .  A
C2803      C2810   1.506       .  S
C2804      C2805   1.402       .  A
C2804      H2809   1.085       .  S
C2805      C2806   1.411       .  A
C2806      C2807   1.508       .  S
C2807      H2811   1.111       .  S
C2807      H2812   1.111       .  S
C2807      H2813   1.110       .  S
C2810      H2814   1.110       .  S
C2810      H2815   1.110       .  S
C2810      H2816   1.111       .  S
C2817      C2818   1.405       .  A
C2817      C2822   1.410       .  A
C2817      H2824   1.084       .  S
C2818      C2819   1.417       .  A
C2819      C2820   1.403       .  A
C2819      C2826   1.509       .  S
C2820      C2821   1.407       .  A
C2820      H2825   1.083       .  S
C2821      C2822   1.420       .  A
C2822      C2823   1.507       .  S
C2823      H2827   1.111       .  S
C2823      H2828   1.110   1_565  S
C2823      H2829   1.110       .  S
C2826      H2830   1.111       .  S
C2826      H2831   1.109       .  S
C2826      H2832   1.111       .  S
C2833      C2834   1.408       .  A
C2833      C2838   1.404       .  A
C2833      H2840   1.083       .  S
C2834      C2835   1.421       .  A
C2835      C2836   1.412       .  A
C2835      C2842   1.506       .  S
C2836      C2837   1.405       .  A
C2836      H2841   1.084       .  S
C2837      C2838   1.414       .  A
C2838      C2839   1.509       .  S
C2839      H2843   1.111       .  S
C2839      H2844   1.109       .  S
C2839      H2845   1.110       .  S
C2842      H2846   1.110       .  S
C2842      H2847   1.110       .  S
C2842      H2848   1.111       .  S
C2849      C2850   1.406       .  A
C2849      C2854   1.402       .  A
C2849      H2856   1.083       .  S
C2850      C2851   1.421       .  A
C2851      C2852   1.411       .  A
C2851      C2858   1.507       .  S
C2852      C2853   1.405       .  A
C2852      H2857   1.084       .  S
C2853      C2854   1.417       .  A
C2854      C2855   1.509       .  S
C2855      H2859   1.111       .  S
C2855      H2860   1.109       .  S
C2855      H2861   1.110       .  S
C2858      H2862   1.110       .  S
C2858      H2863   1.110       .  S
C2858      H2864   1.111       .  S
C2865      C2866   1.404       .  A
C2865      C2870   1.402       .  A
C2865      H2872   1.084       .  S
C2866      C2867   1.417       .  A
C2867      C2868   1.409       .  A
C2867      C2874   1.507       .  S
C2868      C2869   1.408       .  A
C2868      H2873   1.084       .  S
C2869      C2870   1.420       .  A
C2870      C2871   1.510       .  S
C2871      H2875   1.111       .  S
C2871      H2876   1.111       .  S
C2871      H2877   1.110       .  S
C2874      H2878   1.110       .  S
C2874      H2879   1.110       .  S
C2874      H2880   1.111       .  S
C2881      C2882   1.402       .  A
C2881      C2886   1.405       .  A
C2881      H2888   1.084       .  S
C2882      C2883   1.414       .  A
C2883      C2884   1.404       .  A
C2883      C2890   1.508       .  S
C2884      C2885   1.402       .  A
C2884      H2889   1.084       .  S
C2885      C2886   1.414       .  A
C2886      C2887   1.507       .  S
C2887      H2891   1.111       .  S
C2887      H2892   1.110       .  S
C2887      H2893   1.109       .  S
C2890      H2894   1.110       .  S
C2890      H2895   1.109       .  S
C2890      H2896   1.111       .  S
C2897      C2898   1.405       .  A
C2897      C2902   1.406       .  A
C2897      H2904   1.084       .  S
C2898      C2899   1.417       .  A
C2899      C2900   1.411       .  A
C2899      C2906   1.506       .  S
C2900      C2901   1.408       .  A
C2900      H2905   1.083       .  S
C2901      C2902   1.422       .  A
C2902      C2903   1.509       .  S
C2903      H2907   1.111       .  S
C2903      H2908   1.111       .  S
C2903      H2909   1.110       .  S
C2906      H2910   1.111       .  S
C2906      H2911   1.110       .  S
C2906      H2912   1.111       .  S
C2913      C2914   1.402       .  A
C2913      C2918   1.405       .  A
C2913      H2920   1.084       .  S
C2914      C2915   1.416       .  A
C2915      C2916   1.407       .  A
C2915      C2922   1.507       .  S
C2916      C2917   1.404       .  A
C2916      H2921   1.084       .  S
C2917      C2918   1.418       .  A
C2918      C2919   1.509       .  S
C2919      H2923   1.111       .  S
C2919      H2924   1.109       .  S
C2919      H2925   1.110       .  S
C2922      H2926   1.109       .  S
C2922      H2927   1.110       .  S
C2922      H2928   1.111       .  S
C2929      C2930   1.407       .  A
C2929      C2934   1.402       .  A
C2929      H2936   1.083       .  S
C2930      C2931   1.422       .  A
C2931      C2932   1.412       .  A
C2931      C2938   1.507       .  S
C2932      C2933   1.404       .  A
C2932      H2937   1.084       .  S
C2933      C2934   1.415       .  A
C2934      C2935   1.510       .  S
C2935      H2939   1.111       .  S
C2935      H2940   1.109       .  S
C2935      H2941   1.110       .  S
C2938      H2942   1.110       .  S
C2938      H2943   1.110       .  S
C2938      H2944   1.111       .  S
C2945      C2946   1.403       .  A
C2945      C2950   1.405       .  A
C2945      H2952   1.084       .  S
C2946      C2947   1.416       .  A
C2947      C2948   1.407       .  A
C2947      C2954   1.507       .  S
C2948      C2949   1.404       .  A
C2948      H2953   1.084       .  S
C2949      C2950   1.417       .  A
C2950      C2951   1.508       .  S
C2951      H2955   1.111       .  S
C2951      H2956   1.109       .  S
C2951      H2957   1.110       .  S
C2954      H2958   1.109       .  S
C2954      H2959   1.110       .  S
C2954      H2960   1.111       .  S
C2961      C2962   1.404       .  A
C2961      C2966   1.405       .  A
C2961      H2968   1.085       .  S
C2962      C2963   1.413       .  A
C2963      C2964   1.407       .  A
C2963      C2970   1.507       .  S
C2964      C2965   1.406       .  A
C2964      H2969   1.085       .  S
C2965      C2966   1.415       .  A
C2966      C2967   1.507       .  S
C2967      H2971   1.111       .  S
C2967      H2972   1.110       .  S
C2967      H2973   1.110       .  S
C2970      H2974   1.110       .  S
C2970      H2975   1.110       .  S
C2970      H2976   1.111       .  S
C2977      C2978   1.407       .  A
C2977      C2982   1.404       .  A
C2977      H2984   1.083       .  S
C2978      C2979   1.420       .  A
C2979      C2980   1.412       .  A
C2979      C2986   1.507       .  S
C2980      C2981   1.407       .  A
C2980      H2985   1.084       .  S
C2981      C2982   1.418       .  A
C2982      C2983   1.510       .  S
C2983      H2987   1.111       .  S
C2983      H2988   1.109       .  S
C2983      H2989   1.110       .  S
C2986      H2990   1.110       .  S
C2986      H2991   1.110   1_556  S
C2986      H2992   1.111       .  S
C2993      C2994   1.408       .  A
C2993      C2998   1.412       .  A
C2993      H3000   1.084       .  S
C2994      C2995   1.420       .  A
C2995      C2996   1.402       .  A
C2995      C3002   1.510       .  S
C2996      C2997   1.403       .  A
C2996      H3001   1.084       .  S
C2997      C2998   1.417       .  A
C2998      C2999   1.506       .  S
C2999      H3003   1.111       .  S
C2999      H3004   1.110       .  S
C2999      H3005   1.110       .  S
C3002      H3006   1.110       .  S
C3002      H3007   1.110       .  S
C3002      H3008   1.110       .  S
C3009      C3010   1.401       .  A
C3009      C3014   1.406       .  A
C3009      H3016   1.084       .  S
C3010      C3011   1.414       .  A
C3011      C3012   1.406       .  A
C3011      C3018   1.508       .  S
C3012      C3013   1.409       .  A
C3012      H3017   1.084       .  S
C3013      C3014   1.419       .  A
C3014      C3015   1.507       .  S
C3015      H3019   1.111       .  S
C3015      H3020   1.110       .  S
C3015      H3021   1.111       .  S
C3018      H3022   1.111       .  S
C3018      H3023   1.109       .  S
C3018      H3024   1.111       .  S
C3025      C3026   1.404       .  A
C3025      C3030   1.410       .  A
C3025      H3032   1.084       .  S
C3026      C3027   1.415       .  A
C3027      C3028   1.403       .  A
C3027      C3034   1.510       .  S
C3028      C3029   1.407       .  A
C3028      H3033   1.083       .  S
C3029      C3030   1.421       .  A
C3030      C3031   1.507       .  S
C3031      H3035   1.111       .  S
C3031      H3036   1.110       .  S
C3031      H3037   1.110       .  S
C3034      H3038   1.109       .  S
C3034      H3039   1.111       .  S
C3034      H3040   1.111       .  S
C3041      C3042   1.407       .  A
C3041      C3046   1.410       .  A
C3041      H3048   1.085       .  S
C3042      C3043   1.414       .  A
C3043      C3044   1.404       .  A
C3043      C3050   1.507       .  S
C3044      C3045   1.402       .  A
C3044      H3049   1.085       .  S
C3045      C3046   1.414       .  A
C3046      C3047   1.507       .  S
C3047      H3051   1.111       .  S
C3047      H3052   1.110       .  S
C3047      H3053   1.110       .  S
C3050      H3054   1.110       .  S
C3050      H3055   1.110       .  S
C3050      H3056   1.111       .  S
C3057      C3058   1.403       .  A
C3057      C3062   1.407       .  A
C3057      H3064   1.084       .  S
C3058      C3059   1.418       .  A
C3059      C3060   1.412       .  A
C3059      C3066   1.507       .  S
C3060      C3061   1.409       .  A
C3060      H3065   1.084       .  S
C3061      C3062   1.423       .  A
C3062      C3063   1.509       .  S
C3063      H3067   1.111       .  S
C3063      H3068   1.110       .  S
C3063      H3069   1.111       .  S
C3066      H3070   1.111       .  S
C3066      H3071   1.110       .  S
C3066      H3072   1.111       .  S
C3073      C3074   1.401       .  A
C3073      C3078   1.402       .  A
C3073      H3080   1.085       .  S
C3074      C3075   1.412       .  A
C3075      C3076   1.410       .  A
C3075      C3082   1.506       .  S
C3076      C3077   1.407       .  A
C3076      H3081   1.083       .  S
C3077      C3078   1.418       .  A
C3078      C3079   1.509       .  S
C3079      H3083   1.111       .  S
C3079      H3084   1.111       .  S
C3079      H3085   1.108       .  S
C3082      H3086   1.110       .  S
C3082      H3087   1.110       .  S
C3082      H3088   1.111       .  S
C3089      C3090   1.409       .  A
C3089      C3094   1.411       .  A
C3089      H3096   1.084       .  S
C3090      C3091   1.423       .  A
C3091      C3092   1.403       .  A
C3091      C3098   1.510       .  S
C3092      C3093   1.401       .  A
C3092      H3097   1.084       .  S
C3093      C3094   1.415       .  A
C3094      C3095   1.506       .  S
C3095      H3099   1.110       .  S
C3095      H3100   1.110       .  S
C3095      H3101   1.110       .  S
C3098      H3102   1.110       .  S
C3098      H3103   1.111       .  S
C3098      H3104   1.110       .  S
C3105      C3106   1.404       .  A
C3105      C3110   1.407       .  A
C3105      H3112   1.084       .  S
C3106      C3107   1.416       .  A
C3107      C3108   1.409       .  A
C3107      C3114   1.508       .  S
C3108      C3109   1.404       .  A
C3108      H3113   1.084       .  S
C3109      C3110   1.415       .  A
C3110      C3111   1.507       .  S
C3111      H3115   1.111       .  S
C3111      H3116   1.110       .  S
C3111      H3117   1.109       .  S
C3114      H3118   1.111       .  S
C3114      H3119   1.109       .  S
C3114      H3120   1.111       .  S
C3121      C3122   1.407       .  A
C3121      C3126   1.410       .  A
C3121      H3128   1.084       .  S
C3122      C3123   1.421       .  A
C3123      C3124   1.403       .  A
C3123      C3130   1.511       .  S
C3124      C3125   1.402       .  A
C3124      H3129   1.084       .  S
C3125      C3126   1.414       .  A
C3126      C3127   1.506       .  S
C3127      H3131   1.111       .  S
C3127      H3132   1.111       .  S
C3127      H3133   1.110       .  S
C3130      H3134   1.109       .  S
C3130      H3135   1.110       .  S
C3130      H3136   1.111       .  S
C3137      C3138   1.405       .  A
C3137      C3142   1.409       .  A
C3137      H3144   1.084       .  S
C3138      C3139   1.416       .  A
C3139      C3140   1.401       .  A
C3139      C3146   1.509       .  S
C3140      C3141   1.407       .  A
C3140      H3145   1.084       .  S
C3141      C3142   1.420       .  A
C3142      C3143   1.507       .  S
C3143      H3147   1.111       .  S
C3143      H3148   1.110       .  S
C3143      H3149   1.110       .  S
C3146      H3150   1.109       .  S
C3146      H3151   1.110       .  S
C3146      H3152   1.111       .  S
C3153      C3154   1.404       .  A
C3153      C3158   1.407       .  A
C3153      H3160   1.084       .  S
C3154      C3155   1.417       .  A
C3155      C3156   1.405       .  A
C3155      C3162   1.509       .  S
C3156      C3157   1.407       .  A
C3156      H3161   1.084       .  S
C3157      C3158   1.419       .  A
C3158      C3159   1.507       .  S
C3159      H3163   1.111       .  S
C3159      H3164   1.110       .  S
C3159      H3165   1.110       .  S
C3162      H3166   1.109       .  S
C3162      H3167   1.110       .  S
C3162      H3168   1.111       .  S
C3169      C3170   1.406       .  A
C3169      C3174   1.412       .  A
C3169      H3176   1.084       .  S
C3170      C3171   1.418       .  A
C3171      C3172   1.403       .  A
C3171      C3178   1.510       .  S
C3172      C3173   1.407       .  A
C3172      H3177   1.083       .  S
C3173      C3174   1.420       .  A
C3174      C3175   1.506       .  S
C3175      H3179   1.111       .  S
C3175      H3180   1.110       .  S
C3175      H3181   1.110       .  S
C3178      H3182   1.110       .  S
C3178      H3183   1.110       .  S
C3178      H3184   1.111       .  S
C3185      C3186   1.402       .  A
C3185      C3190   1.407       .  A
C3185      H3192   1.085       .  S
C3186      C3187   1.414       .  A
C3187      C3188   1.404       .  A
C3187      C3194   1.507       .  S
C3188      C3189   1.402       .  A
C3188      H3193   1.084       .  S
C3189      C3190   1.418       .  A
C3190      C3191   1.509       .  S
C3191      H3195   1.111       .  S
C3191      H3196   1.109       .  S
C3191      H3197   1.110       .  S
C3194      H3198   1.109       .  S
C3194      H3199   1.110       .  S
C3194      H3200   1.111       .  S
C3201      C3202   1.405       .  A
C3201      C3206   1.413       .  A
C3201      H3208   1.084       .  S
C3202      C3203   1.416       .  A
C3203      C3204   1.402       .  A
C3203      C3210   1.510       .  S
C3204      C3205   1.406       .  A
C3204      H3209   1.083       .  S
C3205      C3206   1.421       .  A
C3206      C3207   1.507       .  S
C3207      H3211   1.111       .  S
C3207      H3212   1.111       .  S
C3207      H3213   1.110       .  S
C3210      H3214   1.111       .  S
C3210      H3215   1.109       .  S
C3210      H3216   1.111       .  S
C3217      C3218   1.403       .  A
C3217      C3222   1.406       .  A
C3217      H3224   1.084       .  S
C3218      C3219   1.414       .  A
C3219      C3220   1.403       .  A
C3219      C3226   1.508       .  S
C3220      C3221   1.403       .  A
C3220      H3225   1.084       .  S
C3221      C3222   1.416       .  A
C3222      C3223   1.508       .  S
C3223      H3227   1.111       .  S
C3223      H3228   1.110       .  S
C3223      H3229   1.109       .  S
C3226      H3230   1.110       .  S
C3226      H3231   1.109       .  S
C3226      H3232   1.111       .  S
C3233      C3234   1.403       .  A
C3233      C3238   1.406       .  A
C3233      H3240   1.084       .  S
C3234      C3235   1.416       .  A
C3235      C3236   1.404       .  A
C3235      C3242   1.508       .  S
C3236      C3237   1.401       .  A
C3236      H3241   1.084       .  S
C3237      C3238   1.415       .  A
C3238      C3239   1.507       .  S
C3239      H3243   1.111       .  S
C3239      H3244   1.109       .  S
C3239      H3245   1.110       .  S
C3242      H3246   1.109       .  S
C3242      H3247   1.110       .  S
C3242      H3248   1.111       .  S
C3249      C3250   1.402       .  A
C3249      C3254   1.404       .  A
C3249      H3256   1.084       .  S
C3250      C3251   1.414       .  A
C3251      C3252   1.404       .  A
C3251      C3258   1.508       .  S
C3252      C3253   1.402       .  A
C3252      H3257   1.084       .  S
C3253      C3254   1.413       .  A
C3254      C3255   1.508       .  S
C3255      H3259   1.111       .  S
C3255      H3260   1.110       .  S
C3255      H3261   1.109       .  S
C3258      H3262   1.110       .  S
C3258      H3263   1.109       .  S
C3258      H3264   1.111       .  S
C3265      C3266   1.407       .  A
C3265      C3270   1.403       .  A
C3265      H3272   1.084       .  S
C3266      C3267   1.419       .  A
C3267      C3268   1.409       .  A
C3267      C3274   1.507       .  S
C3268      C3269   1.405       .  A
C3268      H3273   1.084       .  S
C3269      C3270   1.417       .  A
C3270      C3271   1.509       .  S
C3271      H3275   1.111       .  S
C3271      H3276   1.111       .  S
C3271      H3277   1.109       .  S
C3274      H3278   1.110       .  S
C3274      H3279   1.110       .  S
C3274      H3280   1.111       .  S
C3281      C3282   1.406       .  A
C3281      C3286   1.411       .  A
C3281      H3288   1.084       .  S
C3282      C3283   1.415       .  A
C3283      C3284   1.401       .  A
C3283      C3290   1.509       .  S
C3284      C3285   1.405       .  A
C3284      H3289   1.083       .  S
C3285      C3286   1.420       .  A
C3286      C3287   1.507       .  S
C3287      H3291   1.111       .  S
C3287      H3292   1.110       .  S
C3287      H3293   1.110       .  S
C3290      H3294   1.111       .  S
C3290      H3295   1.109       .  S
C3290      H3296   1.111       .  S
C3297      C3298   1.405       .  A
C3297      C3302   1.400       .  A
C3297      H3304   1.084       .  S
C3298      C3299   1.417       .  A
C3299      C3300   1.411       .  A
C3299      C3306   1.506       .  S
C3300      C3301   1.404       .  A
C3300      H3305   1.084       .  S
C3301      C3302   1.411       .  A
C3302      C3303   1.509       .  S
C3303      H3307   1.111       .  S
C3303      H3308   1.110       .  S
C3303      H3309   1.109       .  S
C3306      H3310   1.110       .  S
C3306      H3311   1.111       .  S
C3306      H3312   1.111       .  S
C3313      C3314   1.404       .  A
C3313      C3318   1.403       .  A
C3313      H3320   1.083       .  S
C3314      C3315   1.417       .  A
C3315      C3316   1.412       .  A
C3315      C3322   1.507       .  S
C3316      C3317   1.409       .  A
C3316      H3321   1.083   1_565  S
C3317      C3318   1.421       .  A
C3318      C3319   1.510       .  S
C3319      H3323   1.111       .  S
C3319      H3324   1.111       .  S
C3319      H3325   1.110       .  S
C3322      H3326   1.111       .  S
C3322      H3327   1.110       .  S
C3322      H3328   1.111       .  S
C3329      C3330   1.409       .  A
C3329      C3334   1.407       .  A
C3329      H3336   1.084       .  S
C3330      C3331   1.421       .  A
C3331      C3332   1.410       .  A
C3331      C3338   1.507       .  S
C3332      C3333   1.404       .  A
C3332      H3337   1.084       .  S
C3333      C3334   1.416       .  A
C3334      C3335   1.508       .  S
C3335      H3339   1.111       .  S
C3335      H3340   1.109       .  S
C3335      H3341   1.110       .  S
C3338      H3342   1.111       .  S
C3338      H3343   1.110       .  S
C3338      H3344   1.111       .  S
C3345      C3346   1.405       .  A
C3345      C3350   1.412       .  A
C3345      H3352   1.084       .  S
C3346      C3347   1.417       .  A
C3347      C3348   1.402       .  A
C3347      C3354   1.511       .  S
C3348      C3349   1.407       .  A
C3348      H3353   1.085       .  S
C3349      C3350   1.418       .  A
C3350      C3351   1.506       .  S
C3351      H3355   1.111       .  S
C3351      H3356   1.111       .  S
C3351      H3357   1.109       .  S
C3354      H3358   1.109   1_565  S
C3354      H3359   1.110   1_565  S
C3354      H3360   1.111       .  S
C3361      C3362   1.410       .  A
C3361      C3366   1.411       .  A
C3361      H3368   1.084       .  S
C3362      C3363   1.423       .  A
C3363      C3364   1.406       .  A
C3363      C3370   1.509       .  S
C3364      C3365   1.402       .  A
C3364      H3369   1.084       .  S
C3365      C3366   1.414       .  A
C3366      C3367   1.506       .  S
C3367      H3371   1.111       .  S
C3367      H3372   1.111       .  S
C3367      H3373   1.110       .  S
C3370      H3374   1.111       .  S
C3370      H3375   1.109       .  S
C3370      H3376   1.111       .  S
C3377      C3378   1.401       .  A
C3377      C3382   1.402       .  A
C3377      H3384   1.084       .  S
C3378      C3379   1.415       .  A
C3379      C3380   1.410       .  A
C3379      C3386   1.507       .  S
C3380      C3381   1.409       .  A
C3380      H3385   1.084       .  S
C3381      C3382   1.421       .  A
C3382      C3383   1.509       .  S
C3383      H3387   1.111       .  S
C3383      H3388   1.111       .  S
C3383      H3389   1.110       .  S
C3386      H3390   1.111       .  S
C3386      H3391   1.110       .  S
C3386      H3392   1.111       .  S
C3393      C3394   1.405       .  A
C3393      C3398   1.400       .  A
C3393      H3400   1.084       .  S
C3394      C3395   1.417       .  A
C3395      C3396   1.409       .  A
C3395      C3402   1.506       .  S
C3396      C3397   1.403       .  A
C3396      H3401   1.084       .  S
C3397      C3398   1.409       .  A
C3398      C3399   1.508       .  S
C3399      H3403   1.111       .  S
C3399      H3404   1.110       .  S
C3399      H3405   1.110       .  S
C3402      H3406   1.110       .  S
C3402      H3407   1.110       .  S
C3402      H3408   1.111       .  S
C3409      C3410   1.407       .  A
C3409      C3414   1.402       .  A
C3409      H3416   1.085       .  S
C3410      C3411   1.418       .  A
C3411      C3412   1.408       .  A
C3411      C3418   1.506       .  S
C3412      C3413   1.401       .  A
C3412      H3417   1.084       .  S
C3413      C3414   1.411       .  A
C3414      C3415   1.509       .  S
C3415      H3419   1.111       .  S
C3415      H3420   1.110       .  S
C3415      H3421   1.110       .  S
C3418      H3422   1.111       .  S
C3418      H3423   1.109       .  S
C3418      H3424   1.111       .  S
C3425      C3426   1.408       .  A
C3425      C3430   1.403       .  A
C3425      H3432   1.083       .  S
C3426      C3427   1.422       .  A
C3427      C3428   1.411       .  A
C3427      C3434   1.507       .  S
C3428      C3429   1.402       .  A
C3428      H3433   1.084       .  S
C3429      C3430   1.412       .  A
C3430      C3431   1.509       .  S
C3431      H3435   1.111       .  S
C3431      H3436   1.111       .  S
C3431      H3437   1.109       .  S
C3434      H3438   1.110       .  S
C3434      H3439   1.110       .  S
C3434      H3440   1.111       .  S
C3441      C3442   1.407       .  A
C3441      C3446   1.402       .  A
C3441      H3448   1.084       .  S
C3442      C3443   1.420       .  A
C3443      C3444   1.409       .  A
C3443      C3450   1.506       .  S
C3444      C3445   1.401       .  A
C3444      H3449   1.084       .  S
C3445      C3446   1.413       .  A
C3446      C3447   1.510       .  S
C3447      H3451   1.111       .  S
C3447      H3452   1.110       .  S
C3447      H3453   1.109       .  S
C3450      H3454   1.110       .  S
C3450      H3455   1.111       .  S
C3450      H3456   1.111       .  S
C3457      C3458   1.408       .  A
C3457      C3462   1.408       .  A
C3457      H3464   1.083       .  S
C3458      C3459   1.421       .  A
C3459      C3460   1.403       .  A
C3459      C3466   1.510       .  S
C3460      C3461   1.403       .  A
C3460      H3465   1.084       .  S
C3461      C3462   1.414       .  A
C3462      C3463   1.506       .  S
C3463      H3467   1.111       .  S
C3463      H3468   1.111       .  S
C3463      H3469   1.110       .  S
C3466      H3470   1.110       .  S
C3466      H3471   1.110       .  S
C3466      H3472   1.111       .  S
C3473      C3474   1.407       .  A
C3473      C3478   1.402       .  A
C3473      H3480   1.084       .  S
C3474      C3475   1.419       .  A
C3475      C3476   1.407       .  A
C3475      C3482   1.507       .  S
C3476      C3477   1.403       .  A
C3476      H3481   1.085       .  S
C3477      C3478   1.415       .  A
C3478      C3479   1.509       .  S
C3479      H3483   1.111       .  S
C3479      H3484   1.109       .  S
C3479      H3485   1.110       .  S
C3482      H3486   1.109       .  S
C3482      H3487   1.110       .  S
C3482      H3488   1.111       .  S
C3489      C3490   1.405       .  A
C3489      C3494   1.405       .  A
C3489      H3496   1.084       .  S
C3490      C3491   1.416       .  A
C3491      C3492   1.408       .  A
C3491      C3498   1.507       .  S
C3492      C3493   1.405       .  A
C3492      H3497   1.084       .  S
C3493      C3494   1.411       .  A
C3494      C3495   1.507       .  S
C3495      H3499   1.111       .  S
C3495      H3500   1.111       .  S
C3495      H3501   1.110       .  S
C3498      H3502   1.110       .  S
C3498      H3503   1.110       .  S
C3498      H3504   1.111       .  S
C3505      C3506   1.408       .  A
C3505      C3510   1.404       .  A
C3505      H3512   1.084       .  S
C3506      C3507   1.421       .  A
C3507      C3508   1.411       .  A
C3507      C3514   1.507       .  S
C3508      C3509   1.405       .  A
C3508      H3513   1.084       .  S
C3509      C3510   1.415       .  A
C3510      C3511   1.509       .  S
C3511      H3515   1.111       .  S
C3511      H3516   1.109       .  S
C3511      H3517   1.111       .  S
C3514      H3518   1.110       .  S
C3514      H3519   1.110       .  S
C3514      H3520   1.111       .  S
C3521      C3522   1.403       .  A
C3521      C3526   1.407       .  A
C3521      H3528   1.084       .  S
C3522      C3523   1.415       .  A
C3523      C3524   1.406       .  A
C3523      C3530   1.507       .  S
C3524      C3525   1.401       .  A
C3524      H3529   1.084       .  S
C3525      C3526   1.415       .  A
C3526      C3527   1.508       .  S
C3527      H3531   1.111       .  S
C3527      H3532   1.109       .  S
C3527      H3533   1.111       .  S
C3530      H3534   1.109       .  S
C3530      H3535   1.110       .  S
C3530      H3536   1.111       .  S
C3537      C3538   1.403       .  A
C3537      C3542   1.405       .  A
C3537      H3544   1.084       .  S
C3538      C3539   1.416       .  A
C3539      C3540   1.405       .  A
C3539      C3546   1.508       .  S
C3540      C3541   1.400       .  A
C3540      H3545   1.085       .  S
C3541      C3542   1.412       .  A
C3542      C3543   1.508       .  S
C3543      H3547   1.111       .  S
C3543      H3548   1.111       .  S
C3543      H3549   1.110       .  S
C3546      H3550   1.110       .  S
C3546      H3551   1.109       .  S
C3546      H3552   1.111       .  S
C3553      C3554   1.408       .  A
C3553      C3558   1.405       .  A
C3553      H3560   1.084       .  S
C3554      C3555   1.420       .  A
C3555      C3556   1.408       .  A
C3555      C3562   1.507       .  S
C3556      C3557   1.404       .  A
C3556      H3561   1.084       .  S
C3557      C3558   1.416       .  A
C3558      C3559   1.509       .  S
C3559      H3563   1.111       .  S
C3559      H3564   1.110       .  S
C3559      H3565   1.109       .  S
C3562      H3566   1.110   1_655  S
C3562      H3567   1.110       .  S
C3562      H3568   1.111       .  S
C3569      C3570   1.405       .  A
C3569      C3574   1.402       .  A
C3569      H3576   1.084       .  S
C3570      C3571   1.418       .  A
C3571      C3572   1.411       .  A
C3571      C3578   1.507       .  S
C3572      C3573   1.407       .  A
C3572      H3577   1.084       .  S
C3573      C3574   1.419       .  A
C3574      C3575   1.510       .  S
C3575      H3579   1.111       .  S
C3575      H3580   1.109       .  S
C3575      H3581   1.111       .  S
C3578      H3582   1.110       .  S
C3578      H3583   1.111       .  S
C3578      H3584   1.111       .  S
C3585      C3586   1.406       .  A
C3585      C3590   1.412       .  A
C3585      H3592   1.084       .  S
C3586      C3587   1.416       .  A
C3587      C3588   1.401       .  A
C3587      C3594   1.510       .  S
C3588      C3589   1.406       .  A
C3588      H3593   1.083       .  S
C3589      C3590   1.419       .  A
C3590      C3591   1.506       .  S
C3591      H3595   1.111       .  S
C3591      H3596   1.110       .  S
C3591      H3597   1.110       .  S
C3594      H3598   1.109       .  S
C3594      H3599   1.111       .  S
C3594      H3600   1.110       .  S
C3601      C3602   1.402       .  A
C3601      C3606   1.403       .  A
C3601      H3608   1.084       .  S
C3602      C3603   1.415       .  A
C3603      C3604   1.409       .  A
C3603      C3610   1.507       .  S
C3604      C3605   1.409       .  A
C3604      H3609   1.083       .  S
C3605      C3606   1.422       .  A
C3606      C3607   1.510       .  S
C3607      H3611   1.111       .  S
C3607      H3612   1.111       .  S
C3607      H3613   1.110       .  S
C3610      H3614   1.111       .  S
C3610      H3615   1.109       .  S
C3610      H3616   1.111       .  S
C3617      C3618   1.404       .  A
C3617      C3622   1.405       .  A
C3617      H3624   1.084       .  S
C3618      C3619   1.417       .  A
C3619      C3620   1.407       .  A
C3619      C3626   1.508       .  S
C3620      C3621   1.403       .  A
C3620      H3625   1.084       .  S
C3621      C3622   1.414       .  A
C3622      C3623   1.508       .  S
C3623      H3627   1.111       .  S
C3623      H3628   1.111       .  S
C3623      H3629   1.109       .  S
C3626      H3630   1.111       .  S
C3626      H3631   1.109       .  S
C3626      H3632   1.111       .  S
C3633      C3634   1.406       .  A
C3633      C3638   1.413       .  A
C3633      H3640   1.084       .  S
C3634      C3635   1.416       .  A
C3635      C3636   1.400       .  A
C3635      C3642   1.508       .  S
C3636      C3637   1.406       .  A
C3636      H3641   1.084       .  S
C3637      C3638   1.421       .  A
C3638      C3639   1.505       .  S
C3639      H3643   1.111       .  S
C3639      H3644   1.110       .  S
C3639      H3645   1.110       .  S
C3642      H3646   1.107       .  S
C3642      H3647   1.109       .  S
C3642      H3648   1.111       .  S
C3649      C3650   1.405       .  A
C3649      C3654   1.412       .  A
C3649      H3656   1.084       .  S
C3650      C3651   1.416       .  A
C3651      C3652   1.403       .  A
C3651      C3658   1.510       .  S
C3652      C3653   1.406       .  A
C3652      H3657   1.084       .  S
C3653      C3654   1.420       .  A
C3654      C3655   1.506       .  S
C3655      H3659   1.111       .  S
C3655      H3660   1.110       .  S
C3655      H3661   1.110   1_554  S
C3658      H3662   1.109       .  S
C3658      H3663   1.110       .  S
C3658      H3664   1.111       .  S
C3665      C3666   1.406       .  A
C3665      C3670   1.406       .  A
C3665      H3672   1.084       .  S
C3666      C3667   1.416       .  A
C3667      C3668   1.407       .  A
C3667      C3674   1.507       .  S
C3668      C3669   1.405       .  A
C3668      H3673   1.084       .  S
C3669      C3670   1.414       .  A
C3670      C3671   1.507       .  S
C3671      H3675   1.111       .  S
C3671      H3676   1.110       .  S
C3671      H3677   1.110       .  S
C3674      H3678   1.110       .  S
C3674      H3679   1.110       .  S
C3674      H3680   1.111       .  S
C3681      C3682   1.405       .  A
C3681      C3686   1.399       .  A
C3681      H3688   1.084       .  S
C3682      C3683   1.418       .  A
C3683      C3684   1.412       .  A
C3683      C3690   1.506       .  S
C3684      C3685   1.407       .  A
C3684      H3689   1.084       .  S
C3685      C3686   1.415       .  A
C3686      C3687   1.510       .  S
C3687      H3691   1.111       .  S
C3687      H3692   1.109       .  S
C3687      H3693   1.111       .  S
C3690      H3694   1.110       .  S
C3690      H3695   1.110       .  S
C3690      H3696   1.111       .  S
C3697      C3698   1.401       .  A
C3697      C3702   1.404       .  A
C3697      H3704   1.085       .  S
C3698      C3699   1.413       .  A
C3699      C3700   1.409       .  A
C3699      C3706   1.506       .  S
C3700      C3701   1.409       .  A
C3700      H3705   1.084       .  S
C3701      C3702   1.423       .  A
C3702      C3703   1.509       .  S
C3703      H3707   1.111       .  S
C3703      H3708   1.110       .  S
C3703      H3709   1.110       .  S
C3706      H3710   1.111       .  S
C3706      H3711   1.109       .  S
C3706      H3712   1.111       .  S
C3713      C3714   1.406       .  A
C3713      C3718   1.405       .  A
C3713      H3720   1.084       .  S
C3714      C3715   1.416       .  A
C3715      C3716   1.408       .  A
C3715      C3722   1.507       .  S
C3716      C3717   1.405       .  A
C3716      H3721   1.084       .  S
C3717      C3718   1.414       .  A
C3718      C3719   1.507       .  S
C3719      H3723   1.111       .  S
C3719      H3724   1.110       .  S
C3719      H3725   1.109       .  S
C3722      H3726   1.110       .  S
C3722      H3727   1.110       .  S
C3722      H3728   1.111       .  S
C3729      C3730   1.402       .  A
C3729      C3734   1.402       .  A
C3729      H3736   1.085       .  S
C3730      C3731   1.417       .  A
C3731      C3732   1.402       .  A
C3731      C3738   1.505       .  S
C3732      C3733   1.400       .  A
C3732      H3737   1.085       .  S
C3733      C3734   1.414       .  A
C3734      C3735   1.507       .  S
C3735      H3739   1.111       .  S
C3735      H3740   1.110       .  S
C3735      H3741   1.107       .  S
C3738      H3742   1.109       .  S
C3738      H3743   1.109       .  S
C3738      H3744   1.111       .  S
C3745      C3746   1.403       .  A
C3745      C3750   1.410       .  A
C3745      H3752   1.084       .  S
C3746      C3747   1.414       .  A
C3747      C3748   1.404       .  A
C3747      C3754   1.509       .  S
C3748      C3749   1.408       .  A
C3748      H3753   1.083       .  S
C3749      C3750   1.422       .  A
C3750      C3751   1.507       .  S
C3751      H3755   1.111       .  S
C3751      H3756   1.110       .  S
C3751      H3757   1.110       .  S
C3754      H3758   1.111       .  S
C3754      H3759   1.109       .  S
C3754      H3760   1.111       .  S
C3761      C3762   1.404       .  A
C3761      C3766   1.412       .  A
C3761      H3768   1.084       .  S
C3762      C3763   1.414       .  A
C3763      C3764   1.406       .  A
C3763      C3770   1.509       .  S
C3764      C3765   1.408       .  A
C3764      H3769   1.083       .  S
C3765      C3766   1.422       .  A
C3766      C3767   1.506       .  S
C3767      H3771   1.111       .  S
C3767      H3772   1.111       .  S
C3767      H3773   1.110       .  S
C3770      H3774   1.109       .  S
C3770      H3775   1.110       .  S
C3770      H3776   1.111       .  S
C3777      C3778   1.407       .  A
C3777      C3782   1.407       .  A
C3777      H3784   1.083       .  S
C3778      C3779   1.422       .  A
C3779      C3780   1.404       .  A
C3779      C3786   1.509       .  S
C3780      C3781   1.403       .  A
C3780      H3785   1.085       .  S
C3781      C3782   1.415       .  A
C3782      C3783   1.507       .  S
C3783      H3787   1.111       .  S
C3783      H3788   1.110       .  S
C3783      H3789   1.110       .  S
C3786      H3790   1.110       .  S
C3786      H3791   1.110       .  S
C3786      H3792   1.111       .  S
C3793      C3794   1.405       .  A
C3793      C3798   1.404       .  A
C3793      H3800   1.084       .  S
C3794      C3795   1.416       .  A
C3795      C3796   1.409       .  A
C3795      C3802   1.507       .  S
C3796      C3797   1.407       .  A
C3796      H3801   1.084       .  S
C3797      C3798   1.420       .  A
C3798      C3799   1.509       .  S
C3799      H3803   1.111       .  S
C3799      H3804   1.111       .  S
C3799      H3805   1.109       .  S
C3802      H3806   1.111       .  S
C3802      H3807   1.110       .  S
C3802      H3808   1.111       .  S
C3809      C3810   1.403       .  A
C3809      C3814   1.406       .  A
C3809      H3816   1.084       .  S
C3810      C3811   1.413       .  A
C3811      C3812   1.405       .  A
C3811      C3818   1.506       .  S
C3812      C3813   1.405       .  A
C3812      H3817   1.084       .  S
C3813      C3814   1.415       .  A
C3814      C3815   1.507       .  S
C3815      H3819   1.111       .  S
C3815      H3820   1.110       .  S
C3815      H3821   1.110       .  S
C3818      H3822   1.110       .  S
C3818      H3823   1.109       .  S
C3818      H3824   1.111       .  S
C3825      C3826   1.407       .  A
C3825      C3830   1.402       .  A
C3825      H3832   1.084       .  S
C3826      C3827   1.420       .  A
C3827      C3828   1.411       .  A
C3827      C3834   1.506       .  S
C3828      C3829   1.405       .  A
C3828      H3833   1.084       .  S
C3829      C3830   1.417       .  A
C3830      C3831   1.510       .  S
C3831      H3835   1.111       .  S
C3831      H3836   1.111       .  S
C3831      H3837   1.110       .  S
C3834      H3838   1.110       .  S
C3834      H3839   1.110       .  S
C3834      H3840   1.111       .  S
C3841      C3842   1.400       .  A
C3841      C3846   1.400       .  A
C3841      H3848   1.084       .  S
C3842      C3843   1.416       .  A
C3843      C3844   1.410       .  A
C3843      C3850   1.507       .  S
C3844      C3845   1.409       .  A
C3844      H3849   1.084       .  S
C3845      C3846   1.422       .  A
C3846      C3847   1.510       .  S
C3847      H3851   1.111       .  S
C3847      H3852   1.110       .  S
C3847      H3853   1.110       .  S
C3850      H3854   1.110       .  S
C3850      H3855   1.110       .  S
C3850      H3856   1.111       .  S
C3857      C3858   1.405       .  A
C3857      C3862   1.412       .  A
C3857      H3864   1.084       .  S
C3858      C3859   1.409       .  A
C3859      C3860   1.395       .  A
C3859      C3866   1.510       .  S
C3860      C3861   1.404       .  A
C3860      H3865   1.082       .  S
C3861      C3862   1.417       .  A
C3862      C3863   1.505       .  S
C3863      H3867   1.111       .  S
C3863      H3868   1.110       .  S
C3863      H3869   1.110       .  S
C3866      H3870   1.109       .  S
C3866      H3871   1.110       .  S
C3866      H3872   1.111       .  S
C3873      C3874   1.410       .  A
C3873      C3878   1.412       .  A
C3873      H3880   1.084       .  S
C3874      C3875   1.422       .  A
C3875      C3876   1.403       .  A
C3875      C3882   1.510       .  S
C3876      C3877   1.403       .  A
C3876      H3881   1.084       .  S
C3877      C3878   1.417       .  A
C3878      C3879   1.507       .  S
C3879      H3883   1.111       .  S
C3879      H3884   1.110       .  S
C3879      H3885   1.111       .  S
C3882      H3886   1.110       .  S
C3882      H3887   1.111       .  S
C3882      H3888   1.111       .  S
C3889      C3890   1.408       .  A
C3889      C3894   1.411       .  A
C3889      H3896   1.084       .  S
C3890      C3891   1.420       .  A
C3891      C3892   1.404       .  A
C3891      C3898   1.510       .  S
C3892      C3893   1.403       .  A
C3892      H3897   1.084       .  S
C3893      C3894   1.417       .  A
C3894      C3895   1.506       .  S
C3895      H3899   1.111       .  S
C3895      H3900   1.110       .  S
C3895      H3901   1.110       .  S
C3898      H3902   1.110       .  S
C3898      H3903   1.111       .  S
C3898      H3904   1.111       .  S
C3905      C3906   1.407       .  A
C3905      C3910   1.400       .  A
C3905      H3912   1.083       .  S
C3906      C3907   1.421       .  A
C3907      C3908   1.415       .  A
C3907      C3914   1.506       .  S
C3908      C3909   1.405       .  A
C3908      H3913   1.084       .  S
C3909      C3910   1.413       .  A
C3910      C3911   1.511       .  S
C3911      H3915   1.111       .  S
C3911      H3916   1.110       .  S
C3911      H3917   1.109       .  S
C3914      H3918   1.110       .  S
C3914      H3919   1.110       .  S
C3914      H3920   1.111       .  S
C3921      C3922   1.400       .  A
C3921      C3926   1.405       .  A
C3921      H3928   1.085       .  S
C3922      C3923   1.413       .  A
C3923      C3924   1.406       .  A
C3923      C3930   1.507       .  S
C3924      C3925   1.404       .  A
C3924      H3929   1.084       .  S
C3925      C3926   1.418       .  A
C3926      C3927   1.508       .  S
C3927      H3931   1.111       .  S
C3927      H3932   1.111       .  S
C3927      H3933   1.108       .  S
C3930      H3934   1.111       .  S
C3930      H3935   1.109       .  S
C3930      H3936   1.111       .  S
C3937      C3938   1.409       .  A
C3937      C3942   1.410       .  A
C3937      H3944   1.084       .  S
C3938      C3939   1.422       .  A
C3939      C3940   1.406       .  A
C3939      C3946   1.509       .  S
C3940      C3941   1.404       .  A
C3940      H3945   1.084       .  S
C3941      C3942   1.415       .  A
C3942      C3943   1.506       .  S
C3943      H3947   1.111       .  S
C3943      H3948   1.110       .  S
C3943      H3949   1.110       .  S
C3946      H3950   1.110       .  S
C3946      H3951   1.110       .  S
C3946      H3952   1.111       .  S
C3953      C3954   1.406       .  A
C3953      C3958   1.409       .  A
C3953      H3960   1.083       .  S
C3954      C3955   1.416       .  A
C3955      C3956   1.403       .  A
C3955      C3962   1.509       .  S
C3956      C3957   1.405       .  A
C3956      H3961   1.084       .  S
C3957      C3958   1.417       .  A
C3958      C3959   1.507       .  S
C3959      H3963   1.111       .  S
C3959      H3964   1.111       .  S
C3959      H3965   1.110       .  S
C3962      H3966   1.109       .  S
C3962      H3967   1.110       .  S
C3962      H3968   1.111       .  S
C3969      C3970   1.408       .  A
C3969      C3974   1.405       .  A
C3969      H3976   1.083       .  S
C3970      C3971   1.421       .  A
C3971      C3972   1.410       .  A
C3971      C3978   1.507       .  S
C3972      C3973   1.404       .  A
C3972      H3977   1.083       .  S
C3973      C3974   1.416       .  A
C3974      C3975   1.509       .  S
C3975      H3979   1.111       .  S
C3975      H3980   1.108       .  S
C3975      H3981   1.111       .  S
C3978      H3982   1.109       .  S
C3978      H3983   1.111       .  S
C3978      H3984   1.111       .  S
C3985      C3986   1.405       .  A
C3985      C3990   1.412       .  A
C3985      H3992   1.084       .  S
C3986      C3987   1.417       .  A
C3987      C3988   1.403       .  A
C3987      C3994   1.510       .  S
C3988      C3989   1.407       .  A
C3988      H3993   1.083       .  S
C3989      C3990   1.420       .  A
C3990      C3991   1.506       .  S
C3991      H3995   1.111       .  S
C3991      H3996   1.110       .  S
C3991      H3997   1.110       .  S
C3994      H3998   1.110       .  S
C3994      H3999   1.109       .  S
C3994      H4000   1.111       .  S
C4001      C4002   1.405       .  A
C4001      C4006   1.410       .  A
C4001      H4008   1.085       .  S
C4002      C4003   1.413       .  A
C4003      C4004   1.405       .  A
C4003      C4010   1.507       .  S
C4004      C4005   1.407       .  A
C4004      H4009   1.084       .  S
C4005      C4006   1.419       .  A
C4006      C4007   1.507       .  S
C4007      H4011   1.111       .  S
C4007      H4012   1.110       .  S
C4007      H4013   1.110       .  S
C4010      H4014   1.110       .  S
C4010      H4015   1.111       .  S
C4010      H4016   1.111       .  S
C4017      C4018   1.407       .  A
C4017      C4022   1.408       .  A
C4017      H4024   1.084       .  S
C4018      C4019   1.420       .  A
C4019      C4020   1.402       .  A
C4019      C4026   1.509       .  S
C4020      C4021   1.404       .  A
C4020      H4025   1.084       .  S
C4021      C4022   1.416       .  A
C4022      C4023   1.506       .  S
C4023      H4027   1.111       .  S
C4023      H4028   1.110       .  S
C4023      H4029   1.110       .  S
C4026      H4030   1.110       .  S
C4026      H4031   1.110       .  S
C4026      H4032   1.111       .  S
C4033      C4034   1.404       .  A
C4033      C4038   1.410       .  A
C4033      H4040   1.084       .  S
C4034      C4035   1.416       .  A
C4035      C4036   1.405       .  A
C4035      C4042   1.509       .  S
C4036      C4037   1.408       .  A
C4036      H4041   1.083       .  S
C4037      C4038   1.421       .  A
C4038      C4039   1.506       .  S
C4039      H4043   1.111       .  S
C4039      H4044   1.110       .  S
C4039      H4045   1.110       .  S
C4042      H4046   1.110       .  S
C4042      H4047   1.109       .  S
C4042      H4048   1.111       .  S
C4049      C4050   1.405       .  A
C4049      C4054   1.409       .  A
C4049      H4056   1.084       .  S
C4050      C4051   1.414       .  A
C4051      C4052   1.407       .  A
C4051      C4058   1.507       .  S
C4052      C4053   1.405       .  A
C4052      H4057   1.084       .  S
C4053      C4054   1.416       .  A
C4054      C4055   1.507       .  S
C4055      H4059   1.111       .  S
C4055      H4060   1.110       .  S
C4055      H4061   1.110       .  S
C4058      H4062   1.111       .  S
C4058      H4063   1.110       .  S
C4058      H4064   1.110       .  S
C4065      C4066   1.407       .  A
C4065      C4070   1.408       .  A
C4065      H4072   1.083       .  S
C4066      C4067   1.422       .  A
C4067      C4068   1.407       .  A
C4067      C4074   1.509       .  S
C4068      C4069   1.406       .  A
C4068      H4073   1.084       .  S
C4069      C4070   1.417       .  A
C4070      C4071   1.507       .  S
C4071      H4075   1.111       .  S
C4071      H4076   1.110       .  S
C4071      H4077   1.110       .  S
C4074      H4078   1.110       .  S
C4074      H4079   1.110       .  S
C4074      H4080   1.111       .  S
C4081      C4082   1.404       .  A
C4081      C4086   1.402       .  A
C4081      H4088   1.084       .  S
C4082      C4083   1.418       .  A
C4083      C4084   1.411       .  A
C4083      C4090   1.507       .  S
C4084      C4085   1.408       .  A
C4084      H4089   1.084       .  S
C4085      C4086   1.420       .  A
C4086      C4087   1.510       .  S
C4087      H4091   1.111       .  S
C4087      H4092   1.110       .  S
C4087      H4093   1.110       .  S
C4090      H4094   1.110       .  S
C4090      H4095   1.110       .  S
C4090      H4096   1.111       .  S
C4097      C4098   1.405       .  A
C4097      C4102   1.406       .  A
C4097      H4104   1.085       .  S
C4098      C4099   1.413       .  A
C4099      C4100   1.404       .  A
C4099      C4106   1.507       .  S
C4100      C4101   1.403       .  A
C4100      H4105   1.085       .  S
C4101      C4102   1.413       .  A
C4102      C4103   1.507       .  S
C4103      H4107   1.111       .  S
C4103      H4108   1.111       .  S
C4103      H4109   1.110       .  S
C4106      H4110   1.111       .  S
C4106      H4111   1.110       .  S
C4106      H4112   1.111       .  S
C4113      C4114   1.404       .  A
C4113      C4118   1.404       .  A
C4113      H4120   1.084       .  S
C4114      C4115   1.414       .  A
C4115      C4116   1.407       .  A
C4115      C4122   1.506       .  S
C4116      C4117   1.406       .  A
C4116      H4121   1.084       .  S
C4117      C4118   1.414       .  A
C4118      C4119   1.508       .  S
C4119      H4123   1.111       .  S
C4119      H4124   1.110       .  S
C4119      H4125   1.110       .  S
C4122      H4126   1.110       .  S
C4122      H4127   1.110       .  S
C4122      H4128   1.111       .  S
C4129      C4130   1.408       .  A
C4129      C4134   1.408       .  A
C4129      H4136   1.083       .  S
C4130      C4131   1.420       .  A
C4131      C4132   1.401       .  A
C4131      C4138   1.510       .  S
C4132      C4133   1.404       .  A
C4132      H4137   1.084       .  S
C4133      C4134   1.415       .  A
C4134      C4135   1.507       .  S
C4135      H4139   1.111       .  S
C4135      H4140   1.109       .  S
C4135      H4141   1.111       .  S
C4138      H4142   1.110       .  S
C4138      H4143   1.111       .  S
C4138      H4144   1.111       .  S
C4145      C4146   1.404       .  A
C4145      C4150   1.409       .  A
C4145      H4152   1.084       .  S
C4146      C4147   1.416       .  A
C4147      C4148   1.402       .  A
C4147      C4154   1.509       .  S
C4148      C4149   1.407       .  A
C4148      H4153   1.083       .  S
C4149      C4150   1.420       .  A
C4150      C4151   1.507       .  S
C4151      H4155   1.111       .  S
C4151      H4156   1.111       .  S
C4151      H4157   1.109       .  S
C4154      H4158   1.111       .  S
C4154      H4159   1.108       .  S
C4154      H4160   1.111       .  S
C4161      C4162   1.409       .  A
C4161      C4166   1.412       .  A
C4161      H4168   1.084       .  S
C4162      C4163   1.422       .  A
C4163      C4164   1.402       .  A
C4163      C4170   1.510       .  S
C4164      C4165   1.402       .  A
C4164      H4169   1.084       .  S
C4165      C4166   1.417       .  A
C4166      C4167   1.507       .  S
C4167      H4171   1.111       .  S
C4167      H4172   1.110       .  S
C4167      H4173   1.110       .  S
C4170      H4174   1.110       .  S
C4170      H4175   1.110       .  S
C4170      H4176   1.111       .  S
C4177      C4178   1.403       .  A
C4177      C4182   1.407       .  A
C4177      H4184   1.084       .  S
C4178      C4179   1.414       .  A
C4179      C4180   1.409       .  A
C4179      C4186   1.506       .  S
C4180      C4181   1.408       .  A
C4180      H4185   1.083       .  S
C4181      C4182   1.422       .  A
C4182      C4183   1.509       .  S
C4183      H4187   1.111       .  S
C4183      H4188   1.111       .  S
C4183      H4189   1.110       .  S
C4186      H4190   1.110       .  S
C4186      H4191   1.111       .  S
C4186      H4192   1.111       .  S
C4193      C4194   1.403       .  A
C4193      C4198   1.404       .  A
C4193      H4200   1.084       .  S
C4194      C4195   1.417       .  A
C4195      C4196   1.403       .  A
C4195      C4202   1.509       .  S
C4196      C4197   1.400       .  A
C4196      H4201   1.084       .  S
C4197      C4198   1.413       .  A
C4198      C4199   1.508       .  S
C4199      H4203   1.111       .  S
C4199      H4204   1.110       .  S
C4199      H4205   1.109       .  S
C4202      H4206   1.110       .  S
C4202      H4207   1.109       .  S
C4202      H4208   1.111       .  S
C4209      C4210   1.407       .  A
C4209      C4214   1.401       .  A
C4209      H4216   1.083       .  S
C4210      C4211   1.420       .  A
C4211      C4212   1.408       .  A
C4211      C4218   1.507       .  S
C4212      C4213   1.404       .  A
C4212      H4217   1.084       .  S
C4213      C4214   1.412       .  A
C4214      C4215   1.509       .  S
C4215      H4219   1.111       .  S
C4215      H4220   1.109       .  S
C4215      H4221   1.110       .  S
C4218      H4222   1.110       .  S
C4218      H4223   1.110       .  S
C4218      H4224   1.111       .  S
C4225      C4226   1.404       .  A
C4225      C4230   1.412       .  A
C4225      H4232   1.084       .  S
C4226      C4227   1.414       .  A
C4227      C4228   1.403       .  A
C4227      C4234   1.509       .  S
C4228      C4229   1.407       .  A
C4228      H4233   1.083       .  S
C4229      C4230   1.422       .  A
C4230      C4231   1.507       .  S
C4231      H4235   1.111       .  S
C4231      H4236   1.110       .  S
C4231      H4237   1.110       .  S
C4234      H4238   1.111       .  S
C4234      H4239   1.109       .  S
C4234      H4240   1.111       .  S
C4241      C4242   1.406       .  A
C4241      C4246   1.406       .  A
C4241      H4248   1.084       .  S
C4242      C4243   1.416       .  A
C4243      C4244   1.407       .  A
C4243      C4250   1.507       .  S
C4244      C4245   1.404       .  A
C4244      H4249   1.085       .  S
C4245      C4246   1.412       .  A
C4246      C4247   1.507       .  S
C4247      H4251   1.111       .  S
C4247      H4252   1.110       .  S
C4247      H4253   1.111       .  S
C4250      H4254   1.110       .  S
C4250      H4255   1.111       .  S
C4250      H4256   1.111       .  S
C4257      C4258   1.407       .  A
C4257      C4262   1.401       .  A
C4257      H4264   1.083       .  S
C4258      C4259   1.420       .  A
C4259      C4260   1.408       .  A
C4259      C4266   1.507       .  S
C4260      C4261   1.404       .  A
C4260      H4265   1.084       .  S
C4261      C4262   1.412       .  A
C4262      C4263   1.509       .  S
C4263      H4267   1.111       .  S
C4263      H4268   1.110       .  S
C4263      H4269   1.109       .  S
C4266      H4270   1.110       .  S
C4266      H4271   1.110       .  S
C4266      H4272   1.111       .  S
C4273      C4274   1.404       .  A
C4273      C4278   1.410       .  A
C4273      H4280   1.084       .  S
C4274      C4275   1.414       .  A
C4275      C4276   1.401       .  A
C4275      C4282   1.510       .  S
C4276      C4277   1.407       .  A
C4276      H4281   1.083       .  S
C4277      C4278   1.421       .  A
C4278      C4279   1.506       .  S
C4279      H4283   1.111       .  S
C4279      H4284   1.110       .  S
C4279      H4285   1.110       .  S
C4282      H4286   1.109       .  S
C4282      H4287   1.111       .  S
C4282      H4288   1.111       .  S
C4289      C4290   1.406       .  A
C4289      C4294   1.404       .  A
C4289      H4296   1.084       .  S
C4290      C4291   1.415       .  A
C4291      C4292   1.403       .  A
C4291      C4298   1.507       .  S
C4292      C4293   1.401       .  A
C4292      H4297   1.085       .  S
C4293      C4294   1.411       .  A
C4294      C4295   1.508       .  S
C4295      H4299   1.111       .  S
C4295      H4300   1.111       .  S
C4295      H4301   1.110       .  S
C4298      H4302   1.110       .  S
C4298      H4303   1.110       .  S
C4298      H4304   1.111       .  S
C4305      C4306   1.404       .  A
C4305      C4310   1.405       .  A
C4305      H4312   1.084       .  S
C4306      C4307   1.414       .  A
C4307      C4308   1.404       .  A
C4307      C4314   1.507       .  S
C4308      C4309   1.404       .  A
C4308      H4313   1.084       .  S
C4309      C4310   1.414       .  A
C4310      C4311   1.507       .  S
C4311      H4315   1.111       .  S
C4311      H4316   1.110       .  S
C4311      H4317   1.110       .  S
C4314      H4318   1.110       .  S
C4314      H4319   1.110       .  S
C4314      H4320   1.111       .  S
