geometry optimzed in LAMMPS
_audit_creation_date              2020-11-30 
_audit_creation_method            'lammps2cif' 
_symmetry_space_group_name_H-M    'P1' 
_symmetry_Int_Tables_number       1 
_symmetry_cell_setting            triclinic 
loop_ 
_symmetry_equiv_pos_as_xyz 
  x,y,z 
_cell_length_a                    37.96974081057742 
_cell_length_b                    38.143327563824485 
_cell_length_c                    68.4895724761208 
_cell_angle_alpha                 90.19853570362459 
_cell_angle_beta                  89.67440592243976 
_cell_angle_gamma                 122.62237267731233 
loop_ 
_atom_site_label 
_atom_site_type_symbol 
_atom_site_fract_x 
_atom_site_fract_y 
_atom_site_fract_z 
_atom_site_charge 
C1          C  0.32970215  0.31685024  0.67491700     0.03030
C2          C  0.36896354  0.34971224  0.66806903    -0.13120
C3          C  0.37188783  0.37469767  0.65233161     0.00530
C4          C  0.33513190  0.37035955  0.64522486    -0.11650
C5          C  0.29598899  0.33944987  0.65256327     0.03020
C6          C  0.29324989  0.31127222  0.66648675    -0.11070
H7          H  0.39733311  0.35470252  0.67446614     0.08610
H8          H  0.33660610  0.39045956  0.63367383     0.06140
H9          H  0.26265900  0.28568686  0.67103078     0.05990
C10         C  0.96237893  0.35740092  0.65296087     0.03030
C11         C  0.94065989  0.33397803  0.66954235    -0.13120
C12         C  0.90241551  0.32896743  0.67500377     0.00530
C13         C  0.88704653  0.34888254  0.66400766    -0.11650
C14         C  0.90997527  0.37481305  0.64824872     0.03020
C15         C  0.94748569  0.37848318  0.64265644    -0.11070
H16         H  0.95280168  0.31854288  0.67775088     0.08610
H17         H  0.85704405  0.34412989  0.66785425     0.06140
H18         H  0.96460796  0.39667929  0.62993387     0.05990
C19         C  0.16517276  0.35476042  0.62042532     0.03030
C20         C  0.13042626  0.35119319  0.62996570    -0.13120
C21         C  0.10468051  0.36122054  0.62004323     0.00530
C22         C  0.11295304  0.37353494  0.60044982    -0.11650
C23         C  0.14697793  0.37641711  0.59081462     0.03020
C24         C  0.17336220  0.36775648  0.60087415    -0.11070
H25         H  0.12373877  0.34114952  0.64504734     0.08610
H26         H  0.09278706  0.38068459  0.59267358     0.06140
H27         H  0.20015088  0.37082581  0.59341153     0.05990
C28         C  0.88848807  0.56189621  0.67755071     0.03030
C29         C  0.87582569  0.52650433  0.66602101    -0.13120
C30         C  0.90278312  0.52665410  0.65176010     0.00530
C31         C  0.94239988  0.56302863  0.64899555    -0.11650
C32         C  0.95566028  0.59856508  0.66046539     0.03020
C33         C  0.92867887  0.59770677  0.67485535    -0.11070
H34         H  0.84466637  0.49911310  0.66804269     0.08610
H35         H  0.96311352  0.56406719  0.63774749     0.06140
H36         H  0.93866394  0.62507547  0.68373435     0.05990
C37         C  0.35187106  0.02385401  0.68039528     0.03030
C38         C  0.38858658  0.03818125  0.66934565    -0.13120
C39         C  0.38977568  0.01296478  0.65460125     0.00530
C40         C  0.35374874  0.97336850  0.65119741    -0.11650
C41         C  0.31716505  0.95887223  0.66214227     0.03020
C42         C  0.31644165  0.98410012  0.67682917    -0.11070
H43         H  0.41568228  0.06913174  0.67200305     0.08610
H44         H  0.35357279  0.95373358  0.63968256     0.06140
H45         H  0.28803119  0.97320358  0.68518860     0.05990
C46         C  0.17992160  0.80323783  0.63257263     0.03030
C47         C  0.14557743  0.77136776  0.64300309    -0.13120
C48         C  0.11389223  0.73611958  0.63311936     0.00530
C49         C  0.11679658  0.73280455  0.61284501    -0.11650
C50         C  0.15081439  0.76458161  0.60235748     0.03020
C51         C  0.18245506  0.79957954  0.61228506    -0.11070
H52         H  0.14292798  0.77453477  0.65857127     0.08610
H53         H  0.09185042  0.70605814  0.60512930     0.06140
H54         H  0.20852266  0.82451571  0.60415266     0.05990
O55         O  0.42406143  0.00527898  0.62725502    -0.74530
O56         O  0.51392358  0.04229711  0.59091509    -0.74560
O57         O  0.49260928  0.99961084  0.62475211    -0.74620
O58         O  0.44729473  0.04976426  0.59352370    -0.74660
O59         O  0.48289463  0.10732201  0.61137221    -0.74600
O60         O  0.52991022  0.05893181  0.64137004    -0.74570
O61         O  0.55094191  0.10186821  0.60749103    -0.74550
O62         O  0.46080931  0.06335256  0.64475785    -0.74620
Ni63       Ni  0.46796508  0.02201034  0.60860323     1.25410
Ni64       Ni  0.50745585  0.08490796  0.62688281     1.25360
C65         C  0.42691657  0.02799498  0.64174458     0.87650
C66         C  0.54706767  0.07826617  0.59313090     0.87580
C67         C  0.51997163  0.02177229  0.63779509     0.87610
C68         C  0.45860255  0.08748858  0.59712352     0.87780
C69         C  0.39424480  0.19902738  0.51738106     0.03030
C70         C  0.40107991  0.17124839  0.52756413    -0.13120
C71         C  0.41108539  0.17750104  0.54747145     0.00530
C72         C  0.41326035  0.21101041  0.55715704    -0.11650
C73         C  0.40734813  0.23925365  0.54705655     0.03020
C74         C  0.39780941  0.23325835  0.52715390    -0.11070
H75         H  0.39962342  0.14557141  0.51992337     0.08610
H76         H  0.42170085  0.21634849  0.57246815     0.06140
H77         H  0.39399726  0.25552016  0.51921373     0.05990
O78         O  0.53915351  0.45417241  0.61123573    -0.74530
O79         O  0.44382893  0.39941926  0.64564144    -0.74560
O80         O  0.46808044  0.37847941  0.61290222    -0.74620
O81         O  0.51676078  0.47553086  0.64454645    -0.74660
O82         O  0.48666029  0.50088169  0.62662388    -0.74600
O83         O  0.43659597  0.40200976  0.59467213    -0.74570
O84         O  0.41325004  0.42418886  0.62766701    -0.74550
O85         O  0.50735430  0.47774710  0.59321897    -0.74620
Ni86       Ni  0.49299761  0.42615934  0.62931573     1.25410
Ni87       Ni  0.45966820  0.45214211  0.61005785     1.25360
C88         C  0.53804854  0.47355499  0.59618566     0.87650
C89         C  0.41197326  0.40148740  0.64173009     0.87580
C90         C  0.44611385  0.37501977  0.59811299     0.87610
C91         C  0.51141623  0.50499411  0.64044385     0.87780
C92         C  0.71954089  0.52731387  0.51844010     0.03030
C93         C  0.68401076  0.52218286  0.52761816    -0.13120
C94         C  0.67504277  0.50890844  0.54704899     0.00530
C95         C  0.70121883  0.49954299  0.55701996    -0.11650
C96         C  0.73817980  0.50663011  0.54830282     0.03020
C97         C  0.74752852  0.52160376  0.52904043    -0.11070
H98         H  0.66333257  0.52828934  0.51961416     0.08610
H99         H  0.69305791  0.48736864  0.57174883     0.06140
H100        H  0.77605886  0.52790202  0.52206608     0.05990
C101        C  0.73309145  0.18362817  0.51340001     0.03030
C102        C  0.69649593  0.15272624  0.52304333    -0.13120
C103        C  0.69075694  0.15696007  0.54300669     0.00530
C104        C  0.72186237  0.19167583  0.55320042    -0.11650
C105        C  0.75761160  0.22309210  0.54357392     0.03020
C106        C  0.76355479  0.21881356  0.52374117    -0.11070
H107        H  0.67189182  0.12663158  0.51487979     0.08610
H108        H  0.71651485  0.19608051  0.56832587     0.06140
H109        H  0.79042853  0.24393970  0.51609770     0.05990
O110        O  0.85294923  0.45674454  0.64190156    -0.74530
O111        O  0.81325931  0.36508874  0.60678912    -0.74560
O112        O  0.85640855  0.38726840  0.64042877    -0.74620
O113        O  0.81049958  0.43421613  0.60798130    -0.74660
O114        O  0.87033495  0.46893753  0.59112371    -0.74600
O115        O  0.91619776  0.42202154  0.62365190    -0.74570
O116        O  0.87311062  0.39958787  0.58992228    -0.74550
O117        O  0.91280460  0.49171767  0.62520569    -0.74620
Ni118      Ni  0.83123111  0.40962955  0.62491769     1.25410
Ni119      Ni  0.89536726  0.44689320  0.60694498     1.25360
C120        C  0.88899238  0.48982770  0.63910338     0.87650
C121        C  0.83631139  0.36738584  0.59253352     0.87580
C122        C  0.89351260  0.39594717  0.63699706     0.87610
C123        C  0.83275575  0.45897822  0.59413867     0.87780
C124        C  0.55962612  0.95334913  0.65233093     0.03030
C125        C  0.53787803  0.96817571  0.64258124    -0.13120
C126        C  0.54150021  0.00511793  0.64858817     0.00530
C127        C  0.56812131  0.02766159  0.66424640    -0.11650
C128        C  0.58866183  0.01229099  0.67480440     0.03020
C129        C  0.58367641  0.97451065  0.66884966    -0.11070
H130        H  0.51929793  0.95153260  0.62990188     0.08610
H131        H  0.57275328  0.05728905  0.66843513     0.06140
H132        H  0.59933016  0.96212045  0.67668072     0.05990
C133        C  0.59157804  0.58681759  0.67501185     0.03030
C134        C  0.56160731  0.54798603  0.66695967    -0.13120
C135        C  0.53662823  0.54491961  0.65112441     0.00530
C136        C  0.53978156  0.58108767  0.64431461    -0.11650
C137        C  0.56787070  0.61987460  0.65290636     0.03020
C138        C  0.59442413  0.62276988  0.66789020    -0.11070
H139        H  0.55920771  0.52023453  0.67255682     0.08610
H140        H  0.52084774  0.57940025  0.63212933     0.06140
H141        H  0.61726823  0.65298243  0.67395111     0.05990
C142        C  0.56195724  0.75359448  0.61815253     0.03030
C143        C  0.56306812  0.78672948  0.62774366    -0.13120
C144        C  0.55688467  0.81438725  0.61716036     0.00530
C145        C  0.54960861  0.80881686  0.59701846    -0.11650
C146        C  0.54867045  0.77586830  0.58742525     0.03020
C147        C  0.55499179  0.74842313  0.59799643    -0.11070
H148        H  0.56828831  0.79071030  0.64334769     0.08610
H149        H  0.54434583  0.82988220  0.58886138     0.06140
H150        H  0.55353498  0.72247816  0.59061501     0.05990
O151        O  0.79396092  0.60860248  0.78221946    -0.74530
O152        O  0.72898545  0.61776083  0.74213554    -0.74560
O153        O  0.72830283  0.61864371  0.78166980    -0.74620
O154        O  0.79460058  0.60768192  0.74266278    -0.74660
O155        O  0.75030546  0.53878842  0.74283988    -0.74600
O156        O  0.68444481  0.54968314  0.78204533    -0.74570
O157        O  0.68486627  0.54876036  0.74248564    -0.74550
O158        O  0.74976381  0.53961297  0.78248756    -0.74620
Ni159      Ni  0.76305461  0.61564296  0.76216867     1.25410
Ni160      Ni  0.71577083  0.54177639  0.76247940     1.25360
C161        C  0.78258964  0.57260551  0.78889321     0.87650
C162        C  0.69625379  0.58466883  0.73571685     0.87580
C163        C  0.69540802  0.58588873  0.78828095     0.87610
C164        C  0.78334443  0.57147387  0.73627574     0.87780
O165        O  0.76702288  0.22441049  0.78371275    -0.74530
O166        O  0.69209244  0.14729997  0.74474200    -0.74560
O167        O  0.69349483  0.14916377  0.78460767    -0.74620
O168        O  0.76527349  0.22228665  0.74395196    -0.74660
O169        O  0.80151136  0.19216048  0.74493498    -0.74600
O170        O  0.72648992  0.11576462  0.78373869    -0.74570
O171        O  0.72755940  0.11645050  0.74448865    -0.74550
O172        O  0.80031513  0.19093285  0.78447843    -0.74620
Ni173      Ni  0.72821164  0.18692053  0.76427279     1.25410
Ni174      Ni  0.76524747  0.15277685  0.76438971     1.25360
C175        C  0.79580646  0.22006831  0.79059160     0.87650
C176        C  0.69737392  0.11896605  0.73806543     0.87580
C177        C  0.69759134  0.11984856  0.79075280     0.87610
C178        C  0.79560134  0.21957812  0.73776226     0.87780
O179        O  0.37342293  0.15985606  0.78484009    -0.74530
O180        O  0.36496423  0.22496179  0.74493645    -0.74560
O181        O  0.36679119  0.22670757  0.78472178    -0.74620
O182        O  0.37130603  0.15732638  0.74511517    -0.74660
O183        O  0.30174897  0.11557892  0.74574350    -0.74600
O184        O  0.29725610  0.18489935  0.78534939    -0.74570
O185        O  0.29567623  0.18300706  0.74527230    -0.74550
O186        O  0.30423879  0.11747017  0.78531426    -0.74620
Ni187      Ni  0.37154297  0.19372988  0.76483231     1.25410
Ni188      Ni  0.29722760  0.14886274  0.76548465     1.25360
C189        C  0.34031869  0.12782718  0.79172846     0.87650
C190        C  0.32919006  0.21432455  0.73810296     0.87580
C191        C  0.33124162  0.21658730  0.79185150     0.87610
C192        C  0.33732001  0.12504849  0.73897480     0.87780
C193        C  0.33032517  0.31673577  0.85544519     0.03030
C194        C  0.37039351  0.34706407  0.86188649    -0.13120
C195        C  0.37625059  0.37701058  0.87563679     0.00530
C196        C  0.34192782  0.37959257  0.88084390    -0.11650
C197        C  0.30058283  0.34739832  0.87603385     0.03020
C198        C  0.29541580  0.31507434  0.86369980    -0.11070
H199        H  0.39689953  0.34635598  0.85651093     0.08610
H200        H  0.34749200  0.40585380  0.88949675     0.06140
H201        H  0.26459657  0.28860431  0.86034433     0.05990
C202        C  0.96385118  0.35924898  0.87323958     0.03030
C203        C  0.94085198  0.33432406  0.85720851    -0.13120
C204        C  0.90379863  0.33128644  0.85154241     0.00530
C205        C  0.89039905  0.35416898  0.86158556    -0.11650
C206        C  0.91336654  0.37975158  0.87741282     0.03020
C207        C  0.94998747  0.38195278  0.88316253    -0.11070
H208        H  0.95095852  0.31626345  0.84960444     0.08610
H209        H  0.86153337  0.35125437  0.85723233     0.06140
H210        H  0.96713264  0.40022016  0.89582814     0.05990
C211        C  0.16246539  0.35436812  0.91066193     0.03030
C212        C  0.13462376  0.36073467  0.89999778    -0.13120
C213        C  0.10250273  0.36201877  0.90962016     0.00530
C214        C  0.10163780  0.36268122  0.93006848    -0.11650
C215        C  0.13064777  0.35893657  0.94082498     0.03020
C216        C  0.15807082  0.35096517  0.93110564    -0.11070
H217        H  0.13742907  0.36434108  0.88430811     0.08610
H218        H  0.07899655  0.36693834  0.93757495     0.06140
H219        H  0.17818960  0.34506508  0.93970004     0.05990
O220        O  0.45333142  0.05768519  0.88539130    -0.74530
O221        O  0.54320176  0.10179081  0.92158293    -0.74560
O222        O  0.52571542  0.05884854  0.88781466    -0.76660
O223        O  0.47074399  0.09883493  0.91958894    -0.74660
O224        O  0.43801442  0.03874522  0.93596324    -0.74600
O225        O  0.49250938  0.99929287  0.90446865    -0.74570
O226        O  0.51075405  0.04228152  0.93836392    -0.74550
O227        O  0.41990958  0.99770861  0.90170871    -0.74620
Ni228      Ni  0.49942019  0.08133410  0.90293946     1.25410
Ni229      Ni  0.46410419  0.01724067  0.92061662     1.25360
C230        C  0.42106541  0.02111934  0.88792674     0.87650
C231        C  0.54155048  0.08002903  0.93611211     0.87580
C232        C  0.51879019  0.02258081  0.89132240     0.87610
C233        C  0.44586045  0.07536311  0.93320454     0.87780
C234        C  0.72847685  0.19154411  0.01442779     0.03030
C235        C  0.69137915  0.16323044  0.00455837    -0.13120
C236        C  0.68642165  0.17001952  0.98499049     0.00530
C237        C  0.71865098  0.20506388  0.97530164    -0.11650
C238        C  0.75643295  0.23302520  0.98472723     0.03020
C239        C  0.76144734  0.22558338  0.00428606    -0.11070
H240        H  0.66576158  0.13707894  0.01233765     0.08610
H241        H  0.71377222  0.21115421  0.96043791     0.06140
H242        H  0.79026487  0.24708581  0.01186170     0.05990
C243        C  0.55823348  0.95431162  0.87534025     0.03030
C244        C  0.58246608  0.97607425  0.85898650    -0.13120
C245        C  0.58848484  0.01459777  0.85386392     0.00530
C246        C  0.56854793  0.03025076  0.86491178    -0.11650
C247        C  0.54152388  0.00712513  0.88036103     0.03020
C248        C  0.53716240  0.96938505  0.88570080    -0.11070
H249        H  0.59759875  0.96359659  0.85063541     0.08610
H250        H  0.57367626  0.06026917  0.86119893     0.06140
H251        H  0.51810247  0.95195689  0.89818355     0.05990
C252        C  0.59240249  0.58610500  0.85048592     0.03030
C253        C  0.56780793  0.54748468  0.85983740    -0.13120
C254        C  0.54177309  0.54248723  0.87566365     0.00530
C255        C  0.54105219  0.57713602  0.88216818    -0.11650
C256        C  0.56584173  0.61598625  0.87296977     0.03020
C257        C  0.59122817  0.62029714  0.85705320    -0.11070
H258        H  0.56942546  0.52143790  0.85477212     0.08610
H259        H  0.52176553  0.57427052  0.89453908     0.06140
H260        H  0.61018178  0.65021879  0.84987421     0.05990
C261        C  0.55385843  0.74822540  0.90641856     0.03030
C262        C  0.55813980  0.78299068  0.89686706    -0.13120
C263        C  0.55098448  0.81061852  0.90714884     0.00530
C264        C  0.54031764  0.80376603  0.92699357    -0.11650
C265        C  0.53659671  0.76964194  0.93657331     0.03020
C266        C  0.54280252  0.74171013  0.92626054    -0.11070
H267        H  0.56674362  0.78838246  0.88156338     0.08610
H268        H  0.53506974  0.82512139  0.93501017     0.06140
H269        H  0.53925937  0.71495742  0.93373249     0.05990
O270        O  0.91420985  0.49597791  0.89980243    -0.74530
O271        O  0.88242765  0.40894818  0.93692109    -0.74560
O272        O  0.92079112  0.42839102  0.90174191    -0.74620
O273        O  0.87581853  0.47615872  0.93495470    -0.74660
O274        O  0.81398106  0.43731435  0.92029657    -0.74600
O275        O  0.85957789  0.39125547  0.88649278    -0.74570
O276        O  0.82125441  0.37042385  0.92167920    -0.74550
O277        O  0.85248202  0.45869786  0.88503446    -0.74620
Ni278      Ni  0.90056695  0.45380000  0.91880614     1.25410
Ni279      Ni  0.83465086  0.41306469  0.90281076     1.25360
C280        C  0.88847603  0.49246279  0.88670332     0.87650
C281        C  0.84649523  0.37521996  0.93532657     0.87580
C282        C  0.89731928  0.40120480  0.88894706     0.87610
C283        C  0.83732804  0.46414942  0.93321529     0.87780
C284        C  0.71724879  0.51376210  0.01193691     0.03030
C285        C  0.75516458  0.52756295  0.00165310    -0.13120
C286        C  0.75540565  0.52280169  0.98140579     0.00530
C287        C  0.72127414  0.51558343  0.97068059    -0.11650
C288        C  0.68342451  0.50267519  0.98000540     0.03020
C289        C  0.68070616  0.49832955  0.00047986    -0.11070
H290        H  0.78448006  0.53997630  0.00912444     0.08610
H291        H  0.72275225  0.51518783  0.95487373     0.06140
H292        H  0.64999640  0.48206199  0.00696492     0.05990
O293        O  0.47312538  0.37290242  0.91169839    -0.74530
O294        O  0.52105068  0.47174647  0.88042790    -0.74560
O295        O  0.54647551  0.44653780  0.91071752    -0.74620
O296        O  0.44669848  0.39728789  0.88081523    -0.74660
O297        O  0.42058424  0.42349667  0.90111823    -0.74600
O298        O  0.52129051  0.47200637  0.93169816    -0.74570
O299        O  0.49601067  0.49825974  0.90117959    -0.74550
O300        O  0.44724597  0.39901406  0.93220796    -0.74620
Ni301      Ni  0.49753202  0.42120169  0.89511654     1.25410
Ni302      Ni  0.47016682  0.44918342  0.91718029     1.25360
C303        C  0.45411197  0.37061023  0.92764816     0.87650
C304        C  0.51800775  0.50207030  0.88612203     0.87580
C305        C  0.55040850  0.46647119  0.92639418     0.87610
C306        C  0.41672657  0.40135738  0.88611815     0.87780
C307        C  0.38738604  0.19458492  0.01072736     0.03030
C308        C  0.38560984  0.16151807  0.00067489    -0.13120
C309        C  0.39879452  0.16640056  0.98113491     0.00530
C310        C  0.41112187  0.20366390  0.97152300    -0.11650
C311        C  0.41054227  0.23584236  0.98100987     0.03020
C312        C  0.39943028  0.23164824  0.00081921    -0.11070
H313        H  0.37554818  0.13272333  0.00830569     0.08610
H314        H  0.42176585  0.20796325  0.95648999     0.06140
H315        H  0.40056939  0.25711094  0.00850901     0.05990
C316        C  0.88486998  0.56406808  0.84892283     0.03030
C317        C  0.87425734  0.52758457  0.85922403    -0.13120
C318        C  0.90042747  0.52893882  0.87413919     0.00530
C319        C  0.93789564  0.56678503  0.87806508    -0.11650
C320        C  0.94891100  0.60298690  0.86788957     0.03020
C321        C  0.92212301  0.60181081  0.85359138    -0.11070
H322        H  0.84544226  0.49848634  0.85579136     0.08610
H323        H  0.95860688  0.56865764  0.88941737     0.06140
H324        H  0.93043288  0.63017549  0.84598906     0.05990
C325        C  0.34759197  0.02077776  0.85008443     0.03030
C326        C  0.38338104  0.03363193  0.86145598    -0.13120
C327        C  0.38412018  0.00670711  0.87527802     0.00530
C328        C  0.34793981  0.96723732  0.87815976    -0.11650
C329        C  0.31168365  0.95455594  0.86746328     0.03020
C330        C  0.31186720  0.98072810  0.85307445    -0.11070
H331        H  0.41045596  0.06499728  0.85968562     0.08610
H332        H  0.34716556  0.94678086  0.88932788     0.06140
H333        H  0.28373970  0.97051043  0.84474509     0.05990
C334        C  0.17188359  0.80285502  0.89866048     0.03030
C335        C  0.13513789  0.77331381  0.88892443    -0.13120
C336        C  0.10336597  0.73825931  0.89895089     0.00530
C337        C  0.10835029  0.73319737  0.91884911    -0.11650
C338        C  0.14479710  0.76281953  0.92869450     0.03020
C339        C  0.17669395  0.79715318  0.91847902    -0.11070
H340        H  0.13104367  0.77784577  0.87370200     0.08610
H341        H  0.08353863  0.70661485  0.92675316     0.06140
H342        H  0.20472167  0.82029226  0.92613942     0.05990
C343        C  0.99747611  0.38193929  0.35168546     0.03030
C344        C  0.01271854  0.41645911  0.36433758    -0.13120
C345        C  0.98627815  0.41812069  0.37828354     0.00530
C346        C  0.94506707  0.38369701  0.38030564    -0.11650
C347        C  0.92982638  0.34867153  0.36840590     0.03020
C348        C  0.95553736  0.34845567  0.35368115    -0.11070
H349        H  0.04516740  0.44192961  0.36333603     0.08610
H350        H  0.92470017  0.38341309  0.39153152     0.06140
H351        H  0.94330165  0.32147862  0.34425999     0.05990
C352        C  0.53943266  0.91473629  0.35514942     0.03030
C353        C  0.50074121  0.90140668  0.36412412    -0.13120
C354        C  0.49629174  0.92851897  0.37634630     0.00530
C355        C  0.53013049  0.96971590  0.37825184    -0.11650
C356        C  0.57042281  0.98188606  0.37180313     0.03020
C357        C  0.57465766  0.95363972  0.36031442    -0.11070
H358        H  0.47425310  0.87011972  0.36141670     0.08610
H359        H  0.52567001  0.99175784  0.38605991     0.06140
H360        H  0.60509562  0.96175359  0.35512849     0.05990
C361        C  0.71281972  0.13998298  0.40021452     0.03030
C362        C  0.71959920  0.14065827  0.42045701    -0.13120
C363        C  0.74888933  0.17744855  0.42990444     0.00530
C364        C  0.77693567  0.21228672  0.41889875    -0.11650
C365        C  0.77495147  0.21070075  0.39846163     0.03020
C366        C  0.74091220  0.17594064  0.38923665    -0.11070
H367        H  0.70021246  0.11309085  0.42924009     0.08610
H368        H  0.80143698  0.24007651  0.42620125     0.06140
H369        H  0.73730465  0.17693292  0.37366424     0.05990
C370        C  0.29702555  0.35638554  0.34791336     0.03030
C371        C  0.32204289  0.39470472  0.35748414    -0.13120
C372        C  0.34863382  0.39906208  0.37277138     0.00530
C373        C  0.34958138  0.36428036  0.37850650    -0.11650
C374        C  0.32447811  0.32575197  0.36918522     0.03020
C375        C  0.29840534  0.32189092  0.35377667    -0.11070
H376        H  0.32022634  0.42094902  0.35308601     0.08610
H377        H  0.36925932  0.36671827  0.39050701     0.06140
H378        H  0.27898430  0.29213040  0.34653503     0.05990
C379        C  0.33347298  0.99208548  0.37306037     0.03030
C380        C  0.35201463  0.97520612  0.38389295    -0.13120
C381        C  0.34630847  0.93692463  0.37852157     0.00530
C382        C  0.32091438  0.91531977  0.36252701    -0.11650
C383        C  0.30354179  0.93266473  0.35110197     0.03020
C384        C  0.31060592  0.97162666  0.35624419    -0.11070
H385        H  0.36983564  0.99147519  0.39680061     0.08610
H386        H  0.31464280  0.88482059  0.35879231     0.06140
H387        H  0.29708756  0.98525592  0.34765462     0.05990
C388        C  0.33969101  0.19799687  0.40467871     0.03030
C389        C  0.34970800  0.20465385  0.42461476    -0.13120
C390        C  0.35559585  0.17675354  0.43514803     0.00530
C391        C  0.35173221  0.14232937  0.42564508    -0.11650
C392        C  0.34219310  0.13570775  0.40573427     0.03020
C393        C  0.33595511  0.16342661  0.39525725    -0.11070
H394        H  0.35285391  0.23145900  0.43191724     0.08610
H395        H  0.35627890  0.12070556  0.43374379     0.06140
H396        H  0.32833182  0.15817995  0.37987307     0.05990
O397        O  0.42581852  0.87724516  0.38550058    -0.74530
O398        O  0.33037287  0.83665074  0.41867504    -0.74560
O399        O  0.35707568  0.88223364  0.38585086    -0.74620
O400        O  0.39901128  0.83242554  0.41915984    -0.74660
O401        O  0.43453794  0.89164050  0.43614569    -0.74600
O402        O  0.38902815  0.93931328  0.40434474    -0.74570
O403        O  0.36463599  0.89301403  0.43739808    -0.74550
O404        O  0.45884666  0.93636285  0.40251657    -0.74620
Ni405      Ni  0.37693815  0.85511860  0.40161599     1.25410
Ni406      Ni  0.41305169  0.91729900  0.42064783     1.25360
C407        C  0.45821907  0.91353855  0.38848677     0.87650
C408        C  0.33202069  0.85699389  0.43386759     0.87580
C409        C  0.36516766  0.91864495  0.39006225     0.87610
C410        C  0.42318698  0.85387285  0.43330488     0.87780
C411        C  0.50690268  0.75077851  0.50594983     0.03030
C412        C  0.49189963  0.77419949  0.49828248    -0.13120
C413        C  0.47391805  0.76479583  0.47979921     0.00530
C414        C  0.46820423  0.73023988  0.46970279    -0.11650
C415        C  0.48659128  0.70881736  0.47628346     0.03020
C416        C  0.50711919  0.72035437  0.49443285    -0.11070
H417        H  0.49401076  0.79939603  0.50668934     0.08610
H418        H  0.45102292  0.72145770  0.45611099     0.06140
H419        H  0.52259906  0.70553091  0.49989256     0.05990
O420        O  0.97648837  0.45186242  0.40498759    -0.74530
O421        O  0.00743329  0.54273639  0.43919363    -0.74560
O422        O  0.96707151  0.51752761  0.40461951    -0.74620
O423        O  0.01867319  0.47900275  0.43923721    -0.74660
O424        O  0.07830383  0.51653247  0.42254500    -0.74600
O425        O  0.02756900  0.55456085  0.38853527    -0.74570
O426        O  0.06788248  0.58107028  0.42309307    -0.74550
O427        O  0.03637575  0.48868428  0.38846897    -0.74620
Ni428      Ni  0.99018108  0.49628772  0.42251860     1.25410
Ni429      Ni  0.05464081  0.53655564  0.40505169     1.25360
C430        C  0.00075884  0.45475913  0.39117516     0.87650
C431        C  0.04296017  0.57651701  0.43704723     0.87580
C432        C  0.98945022  0.54312513  0.39098885     0.87610
C433        C  0.05752572  0.49254588  0.43675960     0.87780
C434        C  0.15398782  0.75460492  0.51814892     0.03030
C435        C  0.19059853  0.78202630  0.50752930    -0.13120
C436        C  0.19201213  0.77695840  0.48732594     0.00530
C437        C  0.15661291  0.74514677  0.47781388    -0.11650
C438        C  0.12079117  0.71626194  0.48821108     0.03020
C439        C  0.11894168  0.72200259  0.50837653    -0.11070
H440        H  0.21834908  0.80589683  0.51509048     0.08610
H441        H  0.15864758  0.74036894  0.46233379     0.06140
H442        H  0.09133999  0.69980069  0.51664098     0.05990
O443        O  0.41974479  0.56543678  0.41211982    -0.74530
O444        O  0.36904308  0.46918525  0.37929388    -0.74560
O445        O  0.34618180  0.49152004  0.41210579    -0.74620
O446        O  0.44372828  0.54473047  0.37918157    -0.74660
O447        O  0.47131890  0.51670422  0.39698364    -0.74600
O448        O  0.37527182  0.46600136  0.43071082    -0.74570
O449        O  0.39629056  0.44181346  0.39784254    -0.74550
O450        O  0.44979372  0.53994836  0.42969524    -0.74620
Ni451      Ni  0.39368003  0.51854982  0.39494064     1.25410
Ni452      Ni  0.42413836  0.48998439  0.41435482     1.25360
C453        C  0.44359856  0.56912798  0.42618414     0.87650
C454        C  0.37289729  0.43878298  0.38366375     0.87580
C455        C  0.34526941  0.47116297  0.42713775     0.87610
C456        C  0.47454622  0.54112711  0.38327199     0.87780
C457        C  0.17249505  0.42134562  0.50958031     0.03030
C458        C  0.14774145  0.43460394  0.50161247    -0.13120
C459        C  0.15339378  0.44746924  0.48215782     0.00530
C460        C  0.18468158  0.44841458  0.47086517    -0.11650
C461        C  0.20919082  0.43455096  0.47855069     0.03020
C462        C  0.20233522  0.42012773  0.49791812    -0.11070
H463        H  0.12414090  0.43481953  0.51049593     0.08610
H464        H  0.18989310  0.45997364  0.45601062     0.06140
H465        H  0.22101242  0.40928240  0.50408709     0.05990
C466        C  0.56214255  0.62802175  0.35239208     0.03030
C467        C  0.52150127  0.59638172  0.35858867    -0.13120
C468        C  0.51571369  0.56814928  0.37341748     0.00530
C469        C  0.55090481  0.56950563  0.38067327    -0.11650
C470        C  0.59116861  0.59977253  0.37423235     0.03020
C471        C  0.59677437  0.62995693  0.36083354    -0.11070
H472        H  0.49453909  0.59494081  0.35243824     0.08610
H473        H  0.54738081  0.54759173  0.39174734     0.06140
H474        H  0.62826051  0.65470902  0.35688244     0.05990
C475        C  0.92336640  0.58266391  0.37247540     0.03030
C476        C  0.94686925  0.60604324  0.35622265    -0.13120
C477        C  0.98323049  0.60724583  0.35090745     0.00530
C478        C  0.99562580  0.58481706  0.36182599    -0.11650
C479        C  0.97244230  0.56151386  0.37820067     0.03020
C480        C  0.93591376  0.56010537  0.38328805    -0.11070
H481        H  0.93779575  0.62439097  0.34821988     0.08610
H482        H  0.02447812  0.58705850  0.35791344     0.06140
H483        H  0.91829785  0.54326035  0.39619245     0.05990
C484        C  0.72111462  0.58386001  0.40702653     0.03030
C485        C  0.71538195  0.57300027  0.42683872    -0.13120
C486        C  0.74324892  0.56573042  0.43642789     0.00530
C487        C  0.77648180  0.56837955  0.42611311    -0.11650
C488        C  0.78267828  0.57936121  0.40629725     0.03020
C489        C  0.75504990  0.58736807  0.39678383    -0.11070
H490        H  0.68928970  0.57032885  0.43481304     0.08610
H491        H  0.79780747  0.56235039  0.43356117     0.06140
H492        H  0.75978006  0.59604416  0.38150111     0.05990
O493        O  0.15483262  0.32410318  0.28333170    -0.74530
O494        O  0.08668074  0.33236912  0.24482258    -0.74560
O495        O  0.15261831  0.32293064  0.24384101    -0.74620
O496        O  0.08868260  0.33395930  0.28419318    -0.74660
O497        O  0.13289600  0.40232133  0.28422129    -0.74600
O498        O  0.19588498  0.39205383  0.24323643    -0.74570
O499        O  0.13011958  0.40129662  0.24444771    -0.74550
O500        O  0.19869251  0.39297928  0.28272808    -0.74620
Ni501      Ni  0.11912613  0.32588192  0.26410568     1.25410
Ni502      Ni  0.16590542  0.39960158  0.26365453     1.25360
C503        C  0.18835837  0.35715515  0.28919666     0.87650
C504        C  0.09729125  0.36810965  0.23814168     0.87580
C505        C  0.18474385  0.35590253  0.23687160     0.87610
C506        C  0.09999713  0.36987180  0.29099874     0.87780
O507        O  0.53307137  0.72558943  0.28585324    -0.74530
O508        O  0.51856552  0.78580370  0.24539061    -0.74560
O509        O  0.52917064  0.72143209  0.24621450    -0.74620
O510        O  0.52204223  0.78979179  0.28531149    -0.74660
O511        O  0.59121289  0.83385610  0.28427488    -0.74600
O512        O  0.59828798  0.76588118  0.24453190    -0.74570
O513        O  0.58725053  0.83085410  0.24441284    -0.74550
O514        O  0.60218360  0.76957865  0.28446663    -0.74620
Ni515      Ni  0.52332726  0.75412986  0.26575967     1.25410
Ni516      Ni  0.59723154  0.80164142  0.26431433     1.25360
C517        C  0.56974553  0.73805843  0.29215946     0.87650
C518        C  0.55058030  0.81811815  0.23793167     0.87580
C519        C  0.56471306  0.73269784  0.23871093     0.87610
C520        C  0.55541812  0.82245929  0.29160987     0.87780
C521        C  0.99355134  0.37582129  0.17843942     0.03030
C522        C  0.00622316  0.41179137  0.16733160    -0.13120
C523        C  0.97931416  0.41206262  0.15335009     0.00530
C524        C  0.93997495  0.37568444  0.15034669    -0.11650
C525        C  0.92746992  0.33949035  0.16089764     0.03020
C526        C  0.95389397  0.33973642  0.17517102    -0.11070
H527        H  0.03722076  0.43928511  0.16947301     0.08610
H528        H  0.91933021  0.37472247  0.13920245     0.06140
H529        H  0.94405115  0.31160413  0.18335930     0.05990
C530        C  0.53737189  0.91649933  0.17633699     0.03030
C531        C  0.50115212  0.90189992  0.16494783    -0.13120
C532        C  0.49901018  0.92760924  0.15084935     0.00530
C533        C  0.53454484  0.96725148  0.14737813    -0.11650
C534        C  0.57118982  0.98163854  0.15804077     0.03020
C535        C  0.57211768  0.95697367  0.17291337    -0.11070
H536        H  0.47462945  0.87037306  0.16709250     0.08610
H537        H  0.53425701  0.98684882  0.13604969     0.06140
H538        H  0.60038997  0.96883571  0.18137533     0.05990
C539        C  0.70988581  0.13530773  0.12753739     0.03030
C540        C  0.70711868  0.14065548  0.10746059    -0.13120
C541        C  0.73902629  0.17599488  0.09779601     0.00530
C542        C  0.77341090  0.20672120  0.10841178    -0.11650
C543        C  0.77644125  0.20181600  0.12852575     0.03020
C544        C  0.74468939  0.16595988  0.13804720    -0.11070
H545        H  0.68045681  0.11682842  0.09926156     0.08610
H546        H  0.79817542  0.23416445  0.10096181     0.06140
H547        H  0.74735493  0.16164855  0.15346738     0.05990
C548        C  0.29581291  0.36044243  0.17756472     0.03030
C549        C  0.32373208  0.39992662  0.16937131    -0.13120
C550        C  0.35079208  0.40483502  0.15406737     0.00530
C551        C  0.35141159  0.36995993  0.14783759    -0.11650
C552        C  0.32515174  0.33074207  0.15645965     0.03020
C553        C  0.29681691  0.32602355  0.17103347    -0.11070
H554        H  0.32300373  0.42647601  0.17442719     0.08610
H555        H  0.37197717  0.37293260  0.13603990     0.06140
H556        H  0.27537390  0.29546940  0.17720202     0.05990
C557        C  0.30273561  0.93294830  0.17788662     0.03030
C558        C  0.32201709  0.91671945  0.16689257    -0.13120
C559        C  0.34890934  0.93904510  0.15131875     0.00530
C560        C  0.35487472  0.97750738  0.14609152    -0.11650
C561        C  0.33468125  0.99360924  0.15649979     0.03020
C562        C  0.30948039  0.97177513  0.17272662    -0.11070
H563        H  0.31581843  0.88627084  0.17060995     0.08610
H564        H  0.37403335  0.99439207  0.13353955     0.06140
H565        H  0.29427414  0.98438631  0.18090800     0.05990
C566        C  0.34508261  0.13830505  0.12365902     0.03030
C567        C  0.33910035  0.16667100  0.13395181    -0.13120
C568        C  0.34101255  0.19988767  0.12404303     0.00530
C569        C  0.34894674  0.20457843  0.10389441    -0.11650
C570        C  0.35491523  0.17640972  0.09359972     0.03020
C571        C  0.35308229  0.14342367  0.10351176    -0.11070
H572        H  0.33271559  0.16276402  0.14949157     0.08610
H573        H  0.35051566  0.23020779  0.09622417     0.06140
H574        H  0.35751907  0.12150307  0.09551537     0.05990
C575        C  0.15492189  0.74810043  0.01209153     0.03030
C576        C  0.12002787  0.71380571  0.02113586    -0.13120
C577        C  0.11957103  0.70848156  0.04137876     0.00530
C578        C  0.15258149  0.73910304  0.05257556    -0.11650
C579        C  0.18942380  0.77103049  0.04369979     0.03020
C580        C  0.19028352  0.77578911  0.02330461    -0.11070
H581        H  0.09436661  0.69032968  0.01234646     0.08610
H582        H  0.15187269  0.73480670  0.06824806     0.06140
H583        H  0.21847134  0.80007909  0.01610725     0.05990
O584        O  0.02963498  0.48124267  0.14245060    -0.74530
O585        O  0.06726998  0.57009953  0.10558918    -0.74560
O586        O  0.02804837  0.55145190  0.14071003    -0.74620
O587        O  0.06805393  0.49953066  0.10751478    -0.74660
O588        O  0.00632637  0.46434052  0.09247440    -0.74600
O589        O  0.96643672  0.51658932  0.12563615    -0.74570
O590        O  0.00547449  0.53508137  0.09057712    -0.74550
O591        O  0.96799575  0.44641567  0.12743166    -0.74620
Ni592      Ni  0.05045431  0.52693836  0.12460519     1.25410
Ni593      Ni  0.98432741  0.48940685  0.10852107     1.25360
C594        C  0.99289759  0.44859069  0.14065038     0.87650
C595        C  0.04272281  0.56711108  0.09200775     0.87580
C596        C  0.99065340  0.54274216  0.13856885     0.87610
C597        C  0.04355472  0.47286238  0.09480821     0.87780
C598        C  0.49678340  0.74593325  0.01849214     0.03030
C599        C  0.49693009  0.71435375  0.02887431    -0.13120
C600        C  0.48379102  0.70665890  0.04843871     0.00530
C601        C  0.47163611  0.73136411  0.05757207    -0.11650
C602        C  0.47320702  0.76392420  0.04752903     0.03020
C603        C  0.48542472  0.77110898  0.02791983    -0.11070
H604        H  0.50616227  0.69522722  0.02161347     0.08610
H605        H  0.46074559  0.72516164  0.07258912     0.06140
H606        H  0.48550052  0.79567749  0.01997425     0.05990
O607        O  0.46043546  0.93505419  0.12523412    -0.74530
O608        O  0.36282803  0.89128470  0.09276485    -0.74560
O609        O  0.39124522  0.94011796  0.12510538    -0.74620
O610        O  0.43194147  0.88782345  0.09258341    -0.74660
O611        O  0.39723656  0.83018315  0.11066725    -0.74600
O612        O  0.35987829  0.88423315  0.14433548    -0.74570
O613        O  0.32987272  0.83655556  0.11233945    -0.74550
O614        O  0.42763399  0.87735647  0.14324560    -0.74620
Ni615      Ni  0.41290542  0.91577598  0.10833185     1.25410
Ni616      Ni  0.37756649  0.85518038  0.12835149     1.25360
C617        C  0.46048838  0.91272391  0.13924953     0.87650
C618        C  0.33001251  0.85595045  0.09716686     0.87580
C619        C  0.36796523  0.92046578  0.13980507     0.87610
C620        C  0.42061188  0.85022979  0.09601334     0.87780
O621        O  0.35075832  0.50094509  0.11544969    -0.74530
O622        O  0.44823064  0.54984823  0.14707919    -0.74560
O623        O  0.42620324  0.57245122  0.11432381    -0.74620
O624        O  0.37228049  0.47586740  0.14767756    -0.74660
O625        O  0.39855137  0.44732533  0.12902202    -0.74600
O626        O  0.45108716  0.54227381  0.09575322    -0.74570
O627        O  0.47481489  0.52150940  0.12848455    -0.74550
O628        O  0.37555914  0.47117380  0.09660395    -0.74620
Ni629      Ni  0.39852320  0.52570063  0.13191444     1.25410
Ni630      Ni  0.42591173  0.49429248  0.11196238     1.25360
C631        C  0.34788216  0.47988293  0.10033207     0.87650
C632        C  0.47860830  0.54595088  0.14245071     0.87580
C633        C  0.44623822  0.57230061  0.09917217     0.87610
C634        C  0.37551772  0.44490891  0.14332440     0.87780
C635        C  0.16155919  0.40349939  0.02223517     0.03030
C636        C  0.13005626  0.40449785  0.03245775    -0.13120
C637        C  0.13809913  0.42338072  0.05087060     0.00530
C638        C  0.17718703  0.43842412  0.05949928    -0.11650
C639        C  0.20747056  0.43386936  0.05022302     0.03020
C640        C  0.20007757  0.41745624  0.03124740    -0.11070
H641        H  0.09988353  0.39213146  0.02564833     0.08610
H642        H  0.18397605  0.45327554  0.07369762     0.06140
H643        H  0.22416957  0.41592130  0.02350445     0.05990
C644        C  0.56230826  0.62951779  0.17546441     0.03030
C645        C  0.59823897  0.63215669  0.16804403    -0.13120
C646        C  0.59479262  0.60458719  0.15344886     0.00530
C647        C  0.55546844  0.57523312  0.14565497    -0.11650
C648        C  0.51928175  0.57270594  0.15251688     0.03020
C649        C  0.52300577  0.59942934  0.16777075    -0.11070
H650        H  0.62874189  0.65501027  0.17390023     0.08610
H651        H  0.55335887  0.55476700  0.13407482     0.06140
H652        H  0.49539562  0.59764599  0.17344996     0.05990
C653        C  0.98823203  0.61302789  0.17690903     0.03030
C654        C  0.99936203  0.58841710  0.16672422    -0.13120
C655        C  0.97573605  0.56415942  0.15076189     0.00530
C656        C  0.93909644  0.56255536  0.14583459    -0.11650
C657        C  0.92708048  0.58615828  0.15621725     0.03020
C658        C  0.95209819  0.61205279  0.17147781    -0.11070
H659        H  0.02725824  0.58923666  0.17095659     0.08610
H660        H  0.92033184  0.54386967  0.13357861     0.06140
H661        H  0.94351756  0.63139660  0.17904401     0.05990
C662        C  0.77910560  0.57099941  0.12542953     0.03030
C663        C  0.76636398  0.54961669  0.10761810    -0.13120
C664        C  0.73859664  0.55285150  0.09538405     0.00530
C665        C  0.71946397  0.57317105  0.10291371    -0.11650
C666        C  0.72626706  0.58770368  0.12225603     0.03020
C667        C  0.75837985  0.58924820  0.13297814    -0.11070
H668        H  0.77946838  0.53175539  0.10318324     0.08610
H669        H  0.69807272  0.57664029  0.09406046     0.06140
H670        H  0.76620967  0.60328751  0.14736485     0.05990
O671        O  0.09105146  0.74699730  0.28525303    -0.74530
O672        O  0.16241236  0.82196459  0.24502099    -0.74560
O673        O  0.08940061  0.74649277  0.24576408    -0.74620
O674        O  0.16367205  0.82305183  0.28402029    -0.74660
O675        O  0.19894446  0.79201840  0.28435801    -0.74600
O676        O  0.12547044  0.71574718  0.24505015    -0.74570
O677        O  0.19803170  0.79110017  0.24462525    -0.74550
O678        O  0.12652743  0.71571032  0.28463628    -0.74620
Ni679      Ni  0.12528177  0.78558638  0.26505418     1.25410
Ni680      Ni  0.16355389  0.75252475  0.26467941     1.25360
C681        C  0.09687022  0.71880740  0.29146352     0.87650
C682        C  0.19232848  0.81917158  0.23822846     0.87580
C683        C  0.09545756  0.71893207  0.23893537     0.87610
C684        C  0.19391456  0.82089491  0.29045797     0.87780
C685        C  0.99928961  0.63597659  0.21195673    -0.01950
C686        C  0.01537894  0.64061913  0.19284288     0.07730
C687        C  0.05782941  0.67130779  0.18900600    -0.02060
C688        C  0.08434522  0.69561822  0.20433768    -0.02070
C689        C  0.06803497  0.69136886  0.22329884     0.07860
C690        C  0.02520498  0.66251687  0.22695204    -0.02260
Br691      Br  0.00179337  0.65950266  0.25242875    -0.00810
Br692      Br  0.94242760  0.59198967  0.21797665    -0.00880
Br693      Br  0.14270655  0.73640787  0.19915883    -0.00840
Br694      Br  0.07942545  0.68214474  0.16259733    -0.00830
C695        C  0.84932525  0.55012319  0.15546139    -0.01950
C696        C  0.88901129  0.58467015  0.15031659     0.07730
C697        C  0.89233277  0.61597617  0.13813224    -0.02060
C698        C  0.85602811  0.61209008  0.13061980    -0.02070
C699        C  0.81638502  0.57680912  0.13521206     0.07860
C700        C  0.81299652  0.54609613  0.14782944    -0.02260
Br701      Br  0.75870501  0.49803564  0.15409091    -0.00810
Br702      Br  0.84496740  0.50808019  0.17271587    -0.00880
Br703      Br  0.86061461  0.65421180  0.11329764    -0.00840
Br704      Br  0.94673468  0.66305265  0.13094713    -0.00830
C705        C  0.65831559  0.63136519  0.13215539    -0.01950
C706        C  0.63182122  0.60427985  0.14697587     0.07730
C707        C  0.63862175  0.57436373  0.15475978    -0.02060
C708        C  0.67023387  0.56976123  0.14700293    -0.02070
C709        C  0.69641888  0.59623610  0.13181526     0.07860
C710        C  0.69093278  0.62771493  0.12473722    -0.02260
Br711      Br  0.72801406  0.66576558  0.10490851    -0.00810
Br712      Br  0.64864817  0.67221348  0.12154360    -0.00880
Br713      Br  0.67466725  0.52447752  0.15621928    -0.00840
Br714      Br  0.60352691  0.53879845  0.17579859    -0.00830
C715        C  0.30652268  0.49871112  0.07947511    -0.01950
C716        C  0.31320663  0.46789018  0.08655892     0.07730
C717        C  0.28639079  0.42616172  0.08062419    -0.02060
C718        C  0.25265374  0.41517257  0.06804605    -0.02070
C719        C  0.24627927  0.44602165  0.06091891     0.07860
C720        C  0.27397786  0.48791338  0.06627218    -0.02260
Br721      Br  0.26738501  0.53069439  0.05532220    -0.00810
Br722      Br  0.34125958  0.55608600  0.08785486    -0.00880
Br723      Br  0.21339632  0.35739964  0.06169822    -0.00840
Br724      Br  0.29333725  0.38343221  0.09120714    -0.00830
C725        C  0.49036246  0.82599046  0.06729167    -0.01950
C726        C  0.46030475  0.78902649  0.05779940     0.07730
C727        C  0.41748513  0.77317453  0.06010595    -0.02060
C728        C  0.40457740  0.79366226  0.07239589    -0.02070
C729        C  0.43441726  0.82966125  0.08265235     0.07860
C730        C  0.47744625  0.84632654  0.07979101    -0.02260
Br731      Br  0.51862823  0.89550257  0.09382816    -0.00810
Br732      Br  0.54906419  0.84759121  0.06370220    -0.00880
Br733      Br  0.34606963  0.77298848  0.07443785    -0.00840
Br734      Br  0.37659622  0.72283420  0.04663827    -0.00830
C735        C  0.49230393  0.64716781  0.09008800    -0.01950
C736        C  0.46190652  0.60608997  0.08478754     0.07730
C737        C  0.44451005  0.59746894  0.06590802    -0.02060
C738        C  0.45237374  0.63035354  0.05360918    -0.02070
C739        C  0.48056916  0.67189373  0.05953785     0.07860
C740        C  0.50221417  0.68008367  0.07736353    -0.02260
Br741      Br  0.54515212  0.73641666  0.08445168    -0.00810
Br742      Br  0.52168641  0.65775084  0.11432667    -0.00880
Br743      Br  0.42090173  0.61797418  0.02973112    -0.00840
Br744      Br  0.40905456  0.54071963  0.05693408    -0.00830
C745        C  0.08776029  0.44762112  0.05176157    -0.01950
C746        C  0.10663305  0.42869190  0.06114753     0.07730
C747        C  0.09740555  0.41734612  0.08104543    -0.02060
C748        C  0.07564594  0.43089768  0.09206796    -0.02070
C749        C  0.05913450  0.45187840  0.08285389     0.07860
C750        C  0.06147262  0.45616859  0.06242467    -0.02260
Br751      Br  0.02923151  0.47416282  0.04902394    -0.00810
Br752      Br  0.10104052  0.46700551  0.02510563    -0.00880
Br753      Br  0.06750181  0.41977539  0.11977602    -0.00840
Br754      Br  0.11359106  0.38250882  0.09329175    -0.00830
C755        C  0.26616344  0.79143064  0.08361290    -0.01950
C756        C  0.29260032  0.83555217  0.08407329     0.07730
C757        C  0.28421845  0.85893198  0.07091885    -0.02060
C758        C  0.25068086  0.83834401  0.05753699    -0.02070
C759        C  0.22763288  0.79451919  0.05601354     0.07860
C760        C  0.23795022  0.77175157  0.06827547    -0.02260
Br761      Br  0.21569843  0.71335622  0.06347057    -0.00810
Br762      Br  0.26374560  0.75563678  0.10437775    -0.00880
Br763      Br  0.23552210  0.87021849  0.04190614    -0.00840
Br764      Br  0.31518502  0.91900577  0.07230183    -0.00830
C765        C  0.08733383  0.60567420  0.06328137    -0.01950
C766        C  0.05810452  0.60080899  0.07748988     0.07730
C767        C  0.04469227  0.62882055  0.07804750    -0.02060
C768        C  0.06228765  0.66288385  0.06505944    -0.02070
C769        C  0.09149478  0.66760431  0.05081072     0.07860
C770        C  0.10201276  0.63741163  0.04928035    -0.02260
Br771      Br  0.13868295  0.64072398  0.02869585    -0.00810
Br772      Br  0.11072893  0.57167973  0.06411853    -0.00880
Br773      Br  0.04805839  0.70421306  0.06720976    -0.00840
Br774      Br  0.00543236  0.62276869  0.09782886    -0.00830
C775        C  0.23186073  0.89224098  0.19419583    -0.01950
C776        C  0.27505404  0.90781054  0.19443261     0.07730
C777        C  0.29109996  0.89462700  0.20918841    -0.02060
C778        C  0.26402466  0.86405459  0.22270780    -0.02070
C779        C  0.22074547  0.84905953  0.22291533     0.07860
C780        C  0.20494362  0.86355717  0.20848506    -0.02260
Br781      Br  0.14562938  0.84134003  0.20668013    -0.00810
Br782      Br  0.20848867  0.90781480  0.17361202    -0.00880
Br783      Br  0.28764650  0.84253412  0.24010645    -0.00840
Br784      Br  0.35092172  0.91942967  0.21119676    -0.00830
C785        C  0.37281700  0.07123439  0.15223003    -0.01950
C786        C  0.33685040  0.03125968  0.14916583     0.07730
C787        C  0.30346525  0.02683025  0.13809736    -0.02060
C788        C  0.30538819  0.06215375  0.13069129    -0.02070
C789        C  0.34147567  0.10204032  0.13353778     0.07860
C790        C  0.37526898  0.10656330  0.14427821    -0.02260
Br791      Br  0.42554813  0.16095089  0.14726317    -0.00810
Br792      Br  0.41907427  0.07733528  0.16684142    -0.00880
Br793      Br  0.25864638  0.05596344  0.11640666    -0.00840
Br794      Br  0.25648589  0.97216213  0.13164197    -0.00830
C795        C  0.29700293  0.22824049  0.13282622    -0.01950
C796        C  0.33510132  0.23040413  0.13447307     0.07730
C797        C  0.36882538  0.26390681  0.14447268    -0.02060
C798        C  0.36482775  0.29568264  0.15243031    -0.02070
C799        C  0.32743350  0.29479242  0.14990752     0.07860
C800        C  0.29325484  0.26055649  0.14030878    -0.02260
Br801      Br  0.24215555  0.25895964  0.13619053    -0.00810
Br802      Br  0.25022514  0.18112291  0.11995415    -0.00880
Br803      Br  0.41065723  0.34030002  0.16696178    -0.00840
Br804      Br  0.42122833  0.26721228  0.14639757    -0.00830
C805        C  0.61569942  0.05947573  0.15840771    -0.01950
C806        C  0.60940986  0.02125551  0.15224029     0.07730
C807        C  0.63739817  0.02070961  0.13883724    -0.02060
C808        C  0.67166925  0.05824171  0.13167761    -0.02070
C809        C  0.67697161  0.09648222  0.13713563     0.07860
C810        C  0.64912569  0.09707781  0.15066773    -0.02260
Br811      Br  0.65493793  0.14900380  0.15757520    -0.00810
Br812      Br  0.57742600  0.05993031  0.17688717    -0.00880
Br813      Br  0.71137495  0.05722292  0.11429912    -0.00840
Br814      Br  0.62704891  0.96846088  0.12909499    -0.00830
C815        C  0.81230910  0.26165614  0.15201685    -0.01950
C816        C  0.81410244  0.23363055  0.13919916     0.07730
C817        C  0.85275291  0.23807998  0.13525731    -0.02060
C818        C  0.88982116  0.27233929  0.14269189    -0.02070
C819        C  0.88822309  0.30069950  0.15531063     0.07860
C820        C  0.84931635  0.29475246  0.16034000    -0.02260
Br821      Br  0.84718718  0.33316214  0.17794696    -0.00810
Br822      Br  0.75967544  0.25636481  0.15715881    -0.00880
Br823      Br  0.94284911  0.28264839  0.13379918    -0.00840
Br824      Br  0.85499209  0.19721411  0.11959150    -0.00830
C825        C  0.58035145  0.65615821  0.21002835    -0.01950
C826        C  0.56539051  0.65776054  0.19143085     0.07730
C827        C  0.55134027  0.68492532  0.18845754    -0.02060
C828        C  0.55108141  0.70914741  0.20395352    -0.02070
C829        C  0.56627935  0.70776042  0.22244817     0.07860
C830        C  0.58079616  0.68110481  0.22540409    -0.02260
Br831      Br  0.59795431  0.67593213  0.25090654    -0.00810
Br832      Br  0.59787663  0.61792377  0.21493724    -0.00880
Br833      Br  0.52878586  0.74358729  0.19989816    -0.00840
Br834      Br  0.53346644  0.69031751  0.16303934    -0.00830
C835        C  0.57620988  0.85956307  0.20649850    -0.01950
C836        C  0.54545890  0.84088246  0.22144833     0.07730
C837        C  0.50991346  0.84402250  0.22023107    -0.02060
C838        C  0.50848524  0.87040924  0.20628464    -0.02070
C839        C  0.53938931  0.88936980  0.19152890     0.07860
C840        C  0.57214103  0.88200314  0.19127622    -0.02260
Br841      Br  0.61018715  0.89989422  0.16933892    -0.00810
Br842      Br  0.62269953  0.85197100  0.20548721    -0.00880
Br843      Br  0.46530732  0.88258843  0.20851234    -0.00840
Br844      Br  0.46137053  0.81120941  0.23666645    -0.00830
C845        C  0.05974046  0.40020204  0.22410790    -0.01950
C846        C  0.07154010  0.37087781  0.22269281     0.07730
C847        C  0.05872433  0.34419477  0.20629139    -0.02060
C848        C  0.03534765  0.34756743  0.19138042    -0.02070
C849        C  0.02186812  0.37543606  0.19326703     0.07860
C850        C  0.03431267  0.40185388  0.20969854    -0.02260
Br851      Br  0.01493583  0.43911353  0.21306138    -0.00810
Br852      Br  0.07594340  0.43673357  0.24631411    -0.00880
Br853      Br  0.02435543  0.31573134  0.16776495    -0.00840
Br854      Br  0.07366446  0.30324783  0.20369338    -0.00830
C855        C  0.26227184  0.33824897  0.21096735    -0.01950
C856        C  0.26442215  0.35525429  0.19233276     0.07730
C857        C  0.23710832  0.36862022  0.18795294    -0.02060
C858        C  0.21144613  0.36928282  0.20262584    -0.02070
C859        C  0.20962885  0.35267467  0.22119774     0.07860
C860        C  0.23356930  0.33533768  0.22503580    -0.02260
Br861      Br  0.22817889  0.30897175  0.24984637    -0.00810
Br862      Br  0.30053044  0.32178367  0.21800198    -0.00880
Br863      Br  0.17889199  0.39324963  0.19723907    -0.00840
Br864      Br  0.23304270  0.38421898  0.16162536    -0.00830
C865        C  0.01634843  0.61926685  0.31779686    -0.01950
C866        C  0.01134052  0.63550648  0.33536806     0.07730
C867        C  0.03647003  0.67859780  0.33900613    -0.02060
C868        C  0.06500439  0.70553759  0.32478026    -0.02070
C869        C  0.06894206  0.68969670  0.30684878     0.07860
C870        C  0.04570531  0.64620770  0.30371475    -0.02260
Br871      Br  0.05443145  0.62312708  0.28044842    -0.00810
Br872      Br  0.98255740  0.56006665  0.31301810    -0.00880
Br873      Br  0.10177347  0.76369394  0.33077314    -0.00840
Br874      Br  0.03373822  0.70060013  0.36400096    -0.00830
C875        C  0.89401696  0.61461774  0.39332942    -0.01950
C876        C  0.88759806  0.58447785  0.37941665     0.07730
C877        C  0.84688944  0.55435070  0.37325867    -0.02060
C878        C  0.81237169  0.55317403  0.38165313    -0.02070
C879        C  0.81867771  0.58290645  0.39586755     0.07860
C880        C  0.85968610  0.61426569  0.40130668    -0.02260
Br881      Br  0.86897891  0.65683460  0.41973239    -0.00810
Br882      Br  0.94979148  0.65539903  0.40206721    -0.00880
Br883      Br  0.75665520  0.50898307  0.37463556    -0.00840
Br884      Br  0.83864556  0.51387180  0.35382108    -0.00830
C885        C  0.59612687  0.67135752  0.32174839    -0.01950
C886        C  0.56834565  0.66012415  0.33782933     0.07730
C887        C  0.54716512  0.68096160  0.34026526    -0.02060
C888        C  0.54712847  0.70595188  0.32526800    -0.02070
C889        C  0.57358424  0.71577867  0.30891774     0.07860
C890        C  0.60166607  0.70231671  0.30858128    -0.02260
Br891      Br  0.64987067  0.72834787  0.29160805    -0.00810
Br892      Br  0.62429032  0.64268780  0.31627600    -0.00880
Br893      Br  0.51271426  0.72894971  0.32801328    -0.00840
Br894      Br  0.52215077  0.67955052  0.36488931    -0.00830
C895        C  0.65561172  0.62837149  0.39469087    -0.01950
C896        C  0.62718899  0.59857680  0.38124754     0.07730
C897        C  0.63150708  0.56572607  0.37523538    -0.02060
C898        C  0.66252578  0.56114401  0.38351197    -0.02070
C899        C  0.69072586  0.59057831  0.39714469     0.07860
C900        C  0.68775163  0.62470379  0.40242190    -0.02260
Br901      Br  0.72749611  0.66617773  0.42039517    -0.00810
Br902      Br  0.64918671  0.67286563  0.40326827    -0.00880
Br903      Br  0.66387019  0.51257168  0.37728269    -0.00840
Br904      Br  0.59469449  0.52684928  0.35559391    -0.00830
C905        C  0.31830949  0.47165911  0.46034632    -0.01950
C906        C  0.31020419  0.45586289  0.44114884     0.07730
C907        C  0.26854974  0.42906908  0.43501139    -0.02060
C908        C  0.23529859  0.41941728  0.44782005    -0.02070
C909        C  0.24361219  0.43817009  0.46650307     0.07860
C910        C  0.28537424  0.46401367  0.47277076    -0.02260
Br911      Br  0.29847723  0.49306265  0.49748701    -0.00810
Br912      Br  0.37472418  0.50656654  0.46941979    -0.00880
Br913      Br  0.17838109  0.38039135  0.43973180    -0.00840
Br914      Br  0.25716003  0.40539590  0.40910628    -0.00830
C915        C  0.06543737  0.60483874  0.47064755    -0.01950
C916        C  0.05580783  0.60998851  0.45145403     0.07730
C917        C  0.05877925  0.64705568  0.44617745    -0.02060
C918        C  0.07407784  0.67996637  0.45967581    -0.02070
C919        C  0.08993132  0.67727024  0.47786862     0.07860
C920        C  0.08440152  0.63893174  0.48353345    -0.02260
Br921      Br  0.10710229  0.63357411  0.50771736    -0.00810
Br922      Br  0.05434132  0.55149999  0.47908168    -0.00880
Br923      Br  0.07489988  0.72953526  0.45300961    -0.00840
Br924      Br  0.04233531  0.65270145  0.42038219    -0.00830
C925        C  0.08591044  0.42850405  0.46703673    -0.01950
C926        C  0.12639690  0.45951395  0.47317331     0.07730
C927        C  0.14284869  0.50156295  0.46880220    -0.02060
C928        C  0.11974134  0.51255693  0.45735492    -0.02070
C929        C  0.07963994  0.48129242  0.45046091     0.07860
C930        C  0.06245940  0.43931341  0.45567136    -0.02260
Br931      Br  0.00878881  0.39587265  0.44568510    -0.00810
Br932      Br  0.06380765  0.37082818  0.47311238    -0.00880
Br933      Br  0.14397148  0.57073101  0.45116345    -0.00840
Br934      Br  0.19752528  0.54396125  0.47833183    -0.00830
C935        C  0.48714110  0.68029806  0.44322916    -0.01950
C936        C  0.48407086  0.67527249  0.46374045     0.07730
C937        C  0.47563746  0.63698976  0.47143464    -0.02060
C938        C  0.47155036  0.60594845  0.45867926    -0.02070
C939        C  0.46301834  0.60724842  0.43866933     0.07860
C940        C  0.47100685  0.64535901  0.43108321    -0.02260
Br941      Br  0.45940385  0.65154453  0.40441433    -0.00810
Br942      Br  0.51584759  0.73481949  0.43128144    -0.00880
Br943      Br  0.48109016  0.56468870  0.46900591    -0.00840
Br944      Br  0.46342438  0.62276381  0.49872641    -0.00830
C945        C  0.47710600  0.83961757  0.44315189    -0.01950
C946        C  0.43824724  0.83481792  0.44662631     0.07730
C947        C  0.41432294  0.81251744  0.46312451    -0.02060
C948        C  0.42583503  0.78945471  0.47425921    -0.02070
C949        C  0.46353731  0.79232566  0.47005937     0.07860
C950        C  0.49053602  0.81975193  0.45543755    -0.02260
Br951      Br  0.54653042  0.83157601  0.45293189    -0.00810
Br952      Br  0.51181600  0.87350388  0.42167978    -0.00880
Br953      Br  0.38982711  0.75344222  0.49491020    -0.00840
Br954      Br  0.36804303  0.81616678  0.47146668    -0.00830
C955        C  0.24568203  0.77632694  0.46685859    -0.01950
C956        C  0.23144957  0.79964918  0.47598157     0.07730
C957        C  0.25087104  0.84228957  0.47172405    -0.02060
C958        C  0.28391030  0.86137367  0.45801220    -0.02070
C959        C  0.29651680  0.83734155  0.44794035     0.07860
C960        C  0.27600418  0.79415763  0.45205948    -0.02260
Br961      Br  0.28800289  0.75773286  0.43775646    -0.00810
Br962      Br  0.22387863  0.71950772  0.47502051    -0.00880
Br963      Br  0.30862610  0.91949628  0.45181080    -0.00840
Br964      Br  0.23090131  0.87400895  0.48402150    -0.00830
C965        C  0.29248551  0.89347538  0.32006772    -0.01950
C966        C  0.27694092  0.90859761  0.33425753     0.07730
C967        C  0.23512757  0.89756744  0.33317050    -0.02060
C968        C  0.20938581  0.87231971  0.31782260    -0.02070
C969        C  0.22309019  0.85230707  0.30510263     0.07860
C970        C  0.26522794  0.86336143  0.30648881    -0.02260
Br971      Br  0.28757487  0.83848589  0.29019171    -0.00810
Br972      Br  0.35184530  0.91519495  0.31884685    -0.00880
Br973      Br  0.15588651  0.86689541  0.31502027    -0.00840
Br974      Br  0.21121024  0.91369523  0.35356442    -0.00830
C975        C  0.30181354  0.02427871  0.39202769    -0.01950
C976        C  0.33499733  0.02923761  0.38042672     0.07730
C977        C  0.37026495  0.06928750  0.37681125    -0.02060
C978        C  0.37235603  0.10438242  0.38480491    -0.02070
C979        C  0.33879171  0.09942129  0.39608442     0.07860
C980        C  0.30335032  0.05938232  0.39952423    -0.02260
Br981      Br  0.25710740  0.05272450  0.41470591    -0.00810
Br982      Br  0.25554991  0.96930619  0.39878762    -0.00880
Br983      Br  0.42202311  0.15901289  0.38121124    -0.00840
Br984      Br  0.41613448  0.07574710  0.36145468    -0.00830
C985        C  0.25952071  0.37606066  0.30041836    -0.01950
C986        C  0.21579424  0.35416006  0.30358380     0.07730
C987        C  0.19876491  0.33036666  0.32080991    -0.02060
C988        C  0.22520829  0.33033301  0.33512934    -0.02070
C989        C  0.26879348  0.35285832  0.33208782     0.07860
C990        C  0.28573888  0.37482776  0.31449219    -0.02260
Br991      Br  0.34511603  0.40289472  0.30961605    -0.00810
Br992      Br  0.28408342  0.40732217  0.27667256    -0.00880
Br993      Br  0.20174171  0.30173468  0.35954101    -0.00840
Br994      Br  0.13947102  0.29976327  0.32573102    -0.00830
C995        C  0.29369209  0.25998702  0.38859847    -0.01950
C996        C  0.32548824  0.28963904  0.37613707     0.07730
C997        C  0.36047000  0.28720539  0.37191246    -0.02060
C998        C  0.36470854  0.25655085  0.38088101    -0.02070
C999        C  0.33348523  0.22764482  0.39378089     0.07860
C1000       C  0.29737399  0.22862638  0.39714082    -0.02260
Br1001     Br  0.25296332  0.18694917  0.41347993    -0.00810
Br1002     Br  0.24640393  0.26385258  0.39502343    -0.00880
Br1003     Br  0.41439591  0.25567364  0.37633253    -0.00840
Br1004     Br  0.40300369  0.32661773  0.35412815    -0.00830
C1005       C  0.56889485  0.87412715  0.34125483    -0.01950
C1006       C  0.54267293  0.88962821  0.33933431     0.07730
C1007       C  0.52148671  0.88373543  0.32155770    -0.02060
C1008       C  0.52597402  0.86211209  0.30603619    -0.02070
C1009       C  0.55230523  0.84678837  0.30782651     0.07860
C1010       C  0.57426675  0.85343905  0.32546437    -0.02260
Br1011     Br  0.61112992  0.83350367  0.32828733    -0.00810
Br1012     Br  0.59608898  0.87966805  0.36582075    -0.00880
Br1013     Br  0.49802845  0.85616166  0.28179829    -0.00840
Br1014     Br  0.48787003  0.90729905  0.31789620    -0.00830
C1015       C  0.60824143  0.03777140  0.39733093    -0.01950
C1016       C  0.60747208  0.02305855  0.37823037     0.07730
C1017       C  0.64192058  0.04872431  0.36570786    -0.02060
C1018       C  0.67792405  0.08485654  0.37318304    -0.02070
C1019       C  0.67590495  0.10160543  0.39139897     0.07860
C1020       C  0.63822365  0.07899549  0.40226278    -0.02260
Br1021     Br  0.62412304  0.10433031  0.42284405    -0.00810
Br1022     Br  0.57303700  0.00134820  0.41823700    -0.00880
Br1023     Br  0.72984086  0.10723229  0.35897846    -0.00840
Br1024     Br  0.63986199  0.03774005  0.33803981    -0.00830
C1025       C  0.04952690  0.34003443  0.31975043    -0.01950
C1026       C  0.07471180  0.37377808  0.30686483     0.07730
C1027       C  0.07517812  0.41112832  0.30946861    -0.02060
C1028       C  0.04823965  0.41284494  0.32321693    -0.02070
C1029       C  0.02531847  0.38007450  0.33667165     0.07860
C1030       C  0.02832556  0.34482003  0.33541633    -0.02260
Br1031     Br  0.00688619  0.30408980  0.35606924    -0.00810
Br1032     Br  0.04219328  0.28597619  0.31672497    -0.00880
Br1033     Br  0.04089678  0.45926800  0.32249017    -0.00840
Br1034     Br  0.11196490  0.46106929  0.29464383    -0.00830
C1035       C  0.85100606  0.30807985  0.36940384    -0.01950
C1036       C  0.88883494  0.31063390  0.37327112     0.07730
C1037       C  0.88794794  0.27867807  0.38395315    -0.02060
C1038       C  0.84972283  0.24366042  0.38986175    -0.02070
C1039       C  0.81229684  0.24252330  0.38740707     0.07860
C1040       C  0.81281631  0.27452372  0.37690651    -0.02260
Br1041     Br  0.76191336  0.27359407  0.37389384    -0.00810
Br1042     Br  0.85206395  0.35176750  0.35481836    -0.00880
Br1043     Br  0.84879079  0.19733838  0.40185758    -0.00840
Br1044     Br  0.93894105  0.28543723  0.39339750    -0.00830
C1045       C  0.12962498  0.77395417  0.96288508    -0.01950
C1046       C  0.14837626  0.75968078  0.95002983     0.07730
C1047       C  0.17108276  0.74333146  0.95756511    -0.02060
C1048       C  0.17426883  0.74046598  0.97791830    -0.02070
C1049       C  0.15452235  0.75373340  0.99074956     0.07860
C1050       C  0.13254204  0.77082030  0.98318614    -0.02260
Br1051     Br  0.10682067  0.79039022  0.00075169    -0.00810
Br1052     Br  0.10048096  0.79847150  0.95266244    -0.00880
Br1053     Br  0.20505634  0.71780425  0.98823475    -0.00840
Br1054     Br  0.19718371  0.72434767  0.93993234    -0.00830
C1055       C  0.21194847  0.88006115  0.89476492    -0.01950
C1056       C  0.20455138  0.84129164  0.88867609     0.07730
C1057       C  0.23027527  0.83980295  0.87417037    -0.02060
C1058       C  0.26395496  0.87701900  0.86624535    -0.02070
C1059       C  0.27258647  0.91567216  0.87315791     0.07860
C1060       C  0.24645574  0.91712630  0.88738178    -0.02260
Br1061     Br  0.25977549  0.96988903  0.89791430    -0.00810
Br1062     Br  0.17489673  0.88248615  0.91337039    -0.00880
Br1063     Br  0.29956792  0.87543139  0.84654647    -0.00840
Br1064     Br  0.22133301  0.78711133  0.86614425    -0.00830
C1065       C  0.98854546  0.67100551  0.88553422    -0.01950
C1066       C  0.98866067  0.64188761  0.87288713     0.07730
C1067       C  0.02684634  0.64671974  0.86736170    -0.02060
C1068       C  0.06460354  0.67894201  0.87548056    -0.02070
C1069       C  0.06436743  0.70702833  0.88884086     0.07860
C1070       C  0.02639336  0.70376751  0.89335323    -0.02260
Br1071     Br  0.02615349  0.74388404  0.91046150    -0.00810
Br1072     Br  0.93623890  0.66441402  0.89305987    -0.00880
Br1073     Br  0.11615838  0.68266235  0.86935905    -0.00840
Br1074     Br  0.02699405  0.60817744  0.84907224    -0.00830
C1075       C  0.40433466  0.19924393  0.06533940    -0.01950
C1076       C  0.36320481  0.18152807  0.07238082     0.07730
C1077       C  0.33003994  0.16870756  0.05918542    -0.02060
C1078       C  0.33799783  0.17345227  0.03896445    -0.02070
C1079       C  0.37908265  0.19105531  0.03193407     0.07860
C1080       C  0.41228471  0.20408447  0.04513227    -0.02260
Br1081     Br  0.46865271  0.22847213  0.03547939    -0.00810
Br1082     Br  0.44975023  0.21718324  0.08345125    -0.00880
Br1083     Br  0.29279018  0.15574033  0.02079843    -0.00840
Br1084     Br  0.27362902  0.14372932  0.06883828    -0.00830
C1085       C  0.40239493  0.31383288  0.95043261    -0.01950
C1086       C  0.44249017  0.33627467  0.94168291     0.07730
C1087       C  0.47280667  0.32769453  0.94747592    -0.02060
C1088       C  0.46327088  0.29740734  0.96173457    -0.02070
C1089       C  0.42270306  0.27373589  0.96968095     0.07860
C1090       C  0.39238114  0.28232493  0.96421205    -0.02260
Br1091     Br  0.33642767  0.24932239  0.97479639    -0.00810
Br1092     Br  0.35994370  0.32371457  0.94253468    -0.00880
Br1093     Br  0.50610514  0.28845061  0.97067352    -0.00840
Br1094     Br  0.52796345  0.35715442  0.93625714    -0.00830
C1095       C  0.61099772  0.46123065  0.93698371    -0.01950
C1096       C  0.58748407  0.48001048  0.93915976     0.07730
C1097       C  0.59767060  0.50845823  0.95479470    -0.02060
C1098       C  0.62879941  0.51565807  0.96834357    -0.02070
C1099       C  0.64693904  0.49170605  0.96761091     0.07860
C1100       C  0.63627000  0.46308996  0.95226282    -0.02260
Br1101     Br  0.65580573  0.42557415  0.95207152    -0.00810
Br1102     Br  0.61518803  0.43801579  0.91248475    -0.00880
Br1103     Br  0.64907452  0.56082034  0.98679639    -0.00840
Br1104     Br  0.57343059  0.54178316  0.95673025    -0.00830
C1105       C  0.75037745  0.51736801  0.04467721    -0.01950
C1106       C  0.71705777  0.51507161  0.03416367     0.07730
C1107       C  0.68680415  0.51748298  0.04561237    -0.02060
C1108       C  0.69055457  0.52049000  0.06612481    -0.02070
C1109       C  0.72998193  0.53589497  0.07486168     0.07860
C1110       C  0.76092308  0.53578192  0.06322209    -0.02260
Br1111     Br  0.81960127  0.56584187  0.06981237    -0.00810
Br1112     Br  0.77675612  0.48822353  0.03651400    -0.00880
Br1113     Br  0.64030854  0.49898553  0.08173540    -0.00840
Br1114     Br  0.64295920  0.52297101  0.03518877    -0.00830
C1115       C  0.83412812  0.52345607  0.94695228    -0.01950
C1116       C  0.81915696  0.48058877  0.94667463     0.07730
C1117       C  0.78617159  0.45302909  0.95919506    -0.02060
C1118       C  0.76926181  0.46838610  0.97239633    -0.02070
C1119       C  0.78267806  0.51090232  0.97203718     0.07860
C1120       C  0.81519692  0.53839999  0.95932525    -0.02260
Br1121     Br  0.83215513  0.59592563  0.95834083    -0.00810
Br1122     Br  0.87758626  0.56087254  0.92898916    -0.00880
Br1123     Br  0.72561044  0.43014676  0.99019153    -0.00840
Br1124     Br  0.76202601  0.39367942  0.95755461    -0.00830
C1125       C  0.47462410  0.73604725  0.98367997    -0.01950
C1126       C  0.50701406  0.75168448  0.99753333     0.07730
C1127       C  0.54904368  0.77303692  0.99139864    -0.02060
C1128       C  0.55874746  0.77888490  0.97137920    -0.02070
C1129       C  0.52638685  0.76328659  0.95753241     0.07860
C1130       C  0.48434594  0.74190015  0.96366228    -0.02260
Br1131     Br  0.44026121  0.72063033  0.94456263    -0.00810
Br1132     Br  0.41697438  0.70609855  0.99215536    -0.00880
Br1133     Br  0.61632096  0.80883093  0.96287817    -0.00840
Br1134     Br  0.59317341  0.79494693  0.01049277    -0.00830
C1135       C  0.59439885  0.67892240  0.89428037    -0.01950
C1136       C  0.56528007  0.65224872  0.88018294     0.07730
C1137       C  0.53471291  0.65932160  0.87341523    -0.02060
C1138       C  0.53175816  0.69165913  0.88146698    -0.02070
C1139       C  0.56019014  0.71782599  0.89599258     0.07860
C1140       C  0.59224800  0.71198887  0.90198067    -0.02260
Br1141     Br  0.63342962  0.74938913  0.92070191    -0.00810
Br1142     Br  0.63636738  0.66919191  0.90346989    -0.00880
Br1143     Br  0.48682344  0.69788044  0.87348642    -0.00840
Br1144     Br  0.49629153  0.62382273  0.85338220    -0.00830
C1145       C  0.58947559  0.92244894  0.89473446    -0.01950
C1146       C  0.55723298  0.91726042  0.88251757     0.07730
C1147       C  0.52352518  0.87695158  0.87787627    -0.02060
C1148       C  0.52189490  0.84188768  0.88555275    -0.02070
C1149       C  0.55451476  0.84705687  0.89750476     0.07860
C1150       C  0.58845905  0.88744392  0.90195826    -0.02260
Br1151     Br  0.63331045  0.89477280  0.91823967    -0.00810
Br1152     Br  0.63379397  0.97756810  0.90252697    -0.00880
Br1153     Br  0.47367303  0.78695407  0.88076445    -0.00840
Br1154     Br  0.47908400  0.87001136  0.86146370    -0.00830
C1155       C  0.80219591  0.31134396  0.98119298    -0.01950
C1156       C  0.78865435  0.27107671  0.97405433     0.07730
C1157       C  0.80197110  0.26704994  0.95532020    -0.02060
C1158       C  0.82270502  0.30169030  0.94281437    -0.02070
C1159       C  0.83313767  0.34109851  0.94945861     0.07860
C1160       C  0.82644545  0.34645796  0.96919303    -0.02260
Br1161     Br  0.84939312  0.40172218  0.97963456    -0.00810
Br1162     Br  0.78388729  0.31895716  0.00632162    -0.00880
Br1163     Br  0.83734836  0.29546917  0.91657560    -0.00840
Br1164     Br  0.79150495  0.21398149  0.94666037    -0.00830
C1165       C  0.75917031  0.17737393  0.04333895    -0.01950
C1166       C  0.73135934  0.18754761  0.03576369     0.07730
C1167       C  0.70629444  0.19424227  0.04860856    -0.02060
C1168       C  0.70885412  0.19046322  0.06889553    -0.02070
C1169       C  0.73667111  0.18031252  0.07646066     0.07860
C1170       C  0.76170044  0.17361237  0.06364037    -0.02260
Br1171     Br  0.79821496  0.15754670  0.07380430    -0.00810
Br1172     Br  0.79285527  0.16731945  0.02585132    -0.00880
Br1173     Br  0.67471385  0.19983292  0.08642031    -0.00840
Br1174     Br  0.66944234  0.21011625  0.03852409    -0.00830
C1175       C  0.43833899  0.09746303  0.96633558    -0.01950
C1176       C  0.42720310  0.09137245  0.94646358     0.07730
C1177       C  0.39993255  0.10242767  0.93924122    -0.02060
C1178       C  0.38620016  0.12227055  0.95157367    -0.02070
C1179       C  0.40287112  0.13462182  0.97060703     0.07860
C1180       C  0.42832052  0.12114730  0.97811815    -0.02260
Br1181     Br  0.45403547  0.13856778  0.00351576    -0.00810
Br1182     Br  0.46874453  0.07476697  0.97731986    -0.00880
Br1183     Br  0.34452115  0.13246024  0.94230855    -0.00840
Br1184     Br  0.38105504  0.08979383  0.91252931    -0.00830
C1185       C  0.59990946  0.08298610  0.95466960    -0.01950
C1186       C  0.57563304  0.09990955  0.95054949     0.07730
C1187       C  0.58607914  0.13810269  0.95913719    -0.02060
C1188       C  0.62062971  0.15925016  0.97161130    -0.02070
C1189       C  0.64610436  0.14348425  0.97490939     0.07860
C1190       C  0.63539083  0.10501345  0.96671782    -0.02260
Br1191     Br  0.67090163  0.08400366  0.97102530    -0.00810
Br1192     Br  0.58714099  0.03189337  0.94227536    -0.00880
Br1193     Br  0.63379012  0.21056718  0.98398046    -0.00840
Br1194     Br  0.55421192  0.16278153  0.95345029    -0.00830
C1195       C  0.12725330  0.33868694  0.97597739    -0.01950
C1196       C  0.13697095  0.36945383  0.96183887     0.07730
C1197       C  0.15638148  0.41152335  0.96754322    -0.02060
C1198       C  0.16532934  0.42258770  0.98729982    -0.02070
C1199       C  0.15507931  0.39174865  0.00143482     0.07860
C1200       C  0.13623068  0.34986102  0.99579133    -0.02260
Br1201     Br  0.12295434  0.30811443  0.01529151    -0.00810
Br1202     Br  0.10116218  0.28131106  0.96819608    -0.00880
Br1203     Br  0.19200062  0.48019511  0.99506360    -0.00840
Br1204     Br  0.17239928  0.45449725  0.94823610    -0.00830
C1205       C  0.99507306  0.32270744  0.88895653    -0.01950
C1206       C  0.00057580  0.35933732  0.88080693     0.07730
C1207       C  0.04056394  0.39663307  0.88126562    -0.02060
C1208       C  0.07433769  0.39751290  0.89029733    -0.02070
C1209       C  0.06854224  0.36100315  0.89856273     0.07860
C1210       C  0.02909239  0.32347814  0.89752151    -0.02260
Br1211     Br  0.02162858  0.27305825  0.90818959    -0.00810
Br1212     Br  0.94033049  0.27197321  0.88984126    -0.00880
Br1213     Br  0.12817039  0.44897284  0.89210224    -0.00840
Br1214     Br  0.04920876  0.44661905  0.86951100    -0.00830
C1215       C  0.23701728  0.37253166  0.91003941    -0.01950
C1216       C  0.19734239  0.35296358  0.90104310     0.07730
C1217       C  0.19152707  0.33086266  0.88345850    -0.02060
C1218       C  0.22599024  0.33295618  0.87418039    -0.02070
C1219       C  0.26379966  0.34750390  0.88463052     0.07860
C1220       C  0.26660388  0.36379841  0.90362929    -0.02260
Br1221     Br  0.30619831  0.36877613  0.92279552    -0.00810
Br1222     Br  0.25419602  0.41509430  0.92984555    -0.00880
Br1223     Br  0.22063336  0.31976980  0.84671369    -0.00840
Br1224     Br  0.13641991  0.29447765  0.87256051    -0.00830
C1225       C  0.37708971  0.06749021  0.82049108    -0.01950
C1226       C  0.34696991  0.04972751  0.83561361     0.07730
C1227       C  0.31644221  0.06004542  0.83697971    -0.02060
C1228       C  0.31367437  0.08464691  0.82250797    -0.02070
C1229       C  0.34375314  0.10240038  0.80727716     0.07860
C1230       C  0.37694930  0.09545568  0.80710014    -0.02260
Br1231     Br  0.42307201  0.12372845  0.78879199    -0.00810
Br1232     Br  0.41737078  0.05169393  0.81718941    -0.00880
Br1233     Br  0.26957650  0.09560509  0.82466995    -0.00840
Br1234     Br  0.27991574  0.04313641  0.85945013    -0.00830
C1235       C  0.31659730  0.29355962  0.82050877    -0.01950
C1236       C  0.32607494  0.28781035  0.83966816     0.07730
C1237       C  0.33767772  0.25887327  0.84300115    -0.02060
C1238       C  0.34024157  0.23632890  0.82728733    -0.02070
C1239       C  0.32951342  0.24117504  0.80824057     0.07860
C1240       C  0.31795794  0.27006727  0.80493180    -0.02260
Br1241     Br  0.30799469  0.28051139  0.77876858    -0.00810
Br1242     Br  0.30545425  0.33634032  0.81521173    -0.00880
Br1243     Br  0.36067970  0.20049389  0.83173945    -0.00840
Br1244     Br  0.35054417  0.25049655  0.86913079    -0.00830
C1245       C  0.65767411  0.05007739  0.83600862    -0.01950
C1246       C  0.61571129  0.03895052  0.83704407     0.07730
C1247       C  0.59997246  0.05229688  0.82221705    -0.02060
C1248       C  0.62686325  0.07993035  0.80767440    -0.02070
C1249       C  0.66889450  0.09062419  0.80626800     0.07860
C1250       C  0.68323473  0.07335578  0.82007855    -0.02260
Br1251     Br  0.73799947  0.08124280  0.81809507    -0.00810
Br1252     Br  0.68189858  0.03661812  0.85715306    -0.00880
Br1253     Br  0.60423152  0.10186951  0.78989245    -0.00840
Br1254     Br  0.54071269  0.03099565  0.82115207    -0.00830
C1255       C  0.85898188  0.28815495  0.80132228    -0.01950
C1256       C  0.82386340  0.24858208  0.80608560     0.07730
C1257       C  0.81586727  0.23597463  0.82578463    -0.02060
C1258       C  0.84297877  0.26240662  0.84054561    -0.02070
C1259       C  0.87735194  0.30237324  0.83580277     0.07860
C1260       C  0.88507524  0.31535972  0.81617885    -0.02260
Br1261     Br  0.93090323  0.37084893  0.80982062    -0.00810
Br1262     Br  0.87222842  0.30472189  0.77446531    -0.00880
Br1263     Br  0.83308422  0.24387270  0.86732564    -0.00840
Br1264     Br  0.76690238  0.18306945  0.83267564    -0.00830
C1265       C  0.66320168  0.61279710  0.83583092    -0.01950
C1266       C  0.61934385  0.59011549  0.83382244     0.07730
C1267       C  0.60084494  0.56877136  0.81629222    -0.02060
C1268       C  0.62578683  0.56806786  0.80123578    -0.02070
C1269       C  0.66964080  0.58956381  0.80344907     0.07860
C1270       C  0.68837819  0.61297211  0.82059410    -0.02260
Br1271     Br  0.74831030  0.64321273  0.82397411    -0.00810
Br1272     Br  0.68871130  0.64150842  0.85995376    -0.00880
Br1273     Br  0.59943714  0.53816689  0.77743814    -0.00840
Br1274     Br  0.54109522  0.54080239  0.81286439    -0.00830
C1275       C  0.81611187  0.55241914  0.83758428    -0.01950
C1276       C  0.85736909  0.56348401  0.83328919     0.07730
C1277       C  0.87333432  0.57648715  0.81416658    -0.02060
C1278       C  0.84926228  0.58054329  0.79985526    -0.02070
C1279       C  0.80801068  0.56904762  0.80410703     0.07860
C1280       C  0.79119103  0.55414230  0.82288292    -0.02260
Br1281     Br  0.73451010  0.53788155  0.82872563    -0.00810
Br1282     Br  0.79433197  0.53749141  0.86385829    -0.00880
Br1283     Br  0.87283287  0.60153726  0.77428575    -0.00840
Br1284     Br  0.92766149  0.58715276  0.80719690    -0.00830
C1285       C  0.49844316  0.73676276  0.56058756    -0.01950
C1286       C  0.53877266  0.76871536  0.56647396     0.07730
C1287       C  0.56923426  0.79404355  0.55241597    -0.02060
C1288       C  0.55919102  0.78769218  0.53245818    -0.02070
C1289       C  0.51886969  0.75587798  0.52662098     0.07860
C1290       C  0.48849403  0.73035638  0.54066165    -0.02260
Br1291     Br  0.43271143  0.68761405  0.53258228    -0.00810
Br1292     Br  0.45635629  0.70283192  0.57987707    -0.00880
Br1293     Br  0.60016530  0.82270337  0.51305396    -0.00840
Br1294     Br  0.62467794  0.83713781  0.56052648    -0.00830
C1295       C  0.62363121  0.60758895  0.70871725    -0.01950
C1296       C  0.62075990  0.58931474  0.69029050     0.07730
C1297       C  0.64476156  0.57163671  0.68670705    -0.02060
C1298       C  0.66824200  0.56900296  0.70177266    -0.02070
C1299       C  0.67142914  0.58762465  0.72000569     0.07860
C1300       C  0.65015817  0.60810711  0.72323295    -0.02260
Br1301     Br  0.65587597  0.63529040  0.74789686    -0.00810
Br1302     Br  0.58923328  0.62935489  0.71480652    -0.00880
Br1303     Br  0.69611477  0.53969690  0.69732145    -0.00840
Br1304     Br  0.64774485  0.55286541  0.66088990    -0.00830
C1305       C  0.53277705  0.65885807  0.64833407    -0.01950
C1306       C  0.56875872  0.65709566  0.64602700     0.07730
C1307       C  0.60397187  0.68929142  0.63597821    -0.02060
C1308       C  0.60252857  0.72225236  0.62773548    -0.02070
C1309       C  0.56568864  0.72258556  0.62913788     0.07860
C1310       C  0.53097713  0.69109961  0.63959469    -0.02260
Br1311     Br  0.47991696  0.69060703  0.64086079    -0.00810
Br1312     Br  0.48574132  0.61700217  0.66350097    -0.00880
Br1313     Br  0.65057413  0.76665284  0.61410617    -0.00840
Br1314     Br  0.65315825  0.68705168  0.63232650    -0.00830
C1315       C  0.65786989  0.04857776  0.69269588    -0.01950
C1316       C  0.61563324  0.03653006  0.69180233     0.07730
C1317       C  0.59952781  0.04936189  0.70687966    -0.02060
C1318       C  0.62620282  0.07735135  0.72140624    -0.02070
C1319       C  0.66859494  0.08906764  0.72260963     0.07860
C1320       C  0.68314617  0.07198681  0.70863660    -0.02260
Br1321     Br  0.73748548  0.07939056  0.71056729    -0.00810
Br1322     Br  0.68311103  0.03651959  0.67133172    -0.00880
Br1323     Br  0.60268918  0.09810610  0.73954621    -0.00840
Br1324     Br  0.54003881  0.02682964  0.70831082    -0.00830
C1325       C  0.52377397  0.87673079  0.64624733    -0.01950
C1326       C  0.55941873  0.91729133  0.64420769     0.07730
C1327       C  0.59396789  0.92388211  0.63316813    -0.02060
C1328       C  0.59368144  0.88991760  0.62499529    -0.02070
C1329       C  0.55808446  0.84943766  0.62701814     0.07860
C1330       C  0.52293176  0.84287131  0.63746293    -0.02260
Br1331     Br  0.47302130  0.78780578  0.63891218    -0.00810
Br1332     Br  0.47581509  0.86780538  0.66067044    -0.00880
Br1333     Br  0.64198319  0.89877194  0.61086008    -0.00840
Br1334     Br  0.64030293  0.97958725  0.62776765    -0.00830
C1335       C  0.76707559  0.28944154  0.55435128    -0.01950
C1336       C  0.78289116  0.26353553  0.55348564     0.07730
C1337       C  0.81804278  0.27308391  0.56461984    -0.02060
C1338       C  0.83697806  0.30837081  0.57685811    -0.02070
C1339       C  0.81928532  0.33263269  0.57862622     0.07860
C1340       C  0.78374725  0.32250901  0.56763707    -0.02260
Br1341     Br  0.75550633  0.35154941  0.57169448    -0.00810
Br1342     Br  0.72151618  0.27880379  0.53766737    -0.00880
Br1343     Br  0.88435680  0.32102190  0.59265175    -0.00840
Br1344     Br  0.83860996  0.23664436  0.56375639    -0.00830
C1345       C  0.76211083  0.16788628  0.48410726    -0.01950
C1346       C  0.73751002  0.18195651  0.49202114     0.07730
C1347       C  0.71858503  0.19633908  0.47950984    -0.02060
C1348       C  0.72303624  0.19537413  0.45920494    -0.02070
C1349       C  0.74680561  0.18042844  0.45128813     0.07860
C1350       C  0.76667343  0.16702668  0.46371470    -0.02260
Br1351     Br  0.80026755  0.14793988  0.45271788    -0.00810
Br1352     Br  0.78961318  0.15007322  0.50124951    -0.00880
Br1353     Br  0.69636752  0.21446251  0.44213174    -0.00840
Br1354     Br  0.68763984  0.21875788  0.49004398    -0.00830
C1355       C  0.78070330  0.47357063  0.55098563    -0.01950
C1356       C  0.76653139  0.49796588  0.55932865     0.07730
C1357       C  0.77926749  0.51357789  0.57853351    -0.02060
C1358       C  0.80076240  0.50056764  0.58995889    -0.02070
C1359       C  0.81428776  0.47611948  0.58160517     0.07860
C1360       C  0.80731936  0.46572229  0.56166202    -0.02260
Br1361     Br  0.83446273  0.44116757  0.54886959    -0.00810
Br1362     Br  0.76079935  0.44666700  0.52592160    -0.00880
Br1363     Br  0.81339221  0.51773513  0.61696055    -0.00840
Br1364     Br  0.77042640  0.55502134  0.58916494    -0.00830
C1365       C  0.70411594  0.50517636  0.48361339    -0.01950
C1366       C  0.72652509  0.53710292  0.49745217     0.07730
C1367       C  0.75507214  0.57818877  0.49125337    -0.02060
C1368       C  0.76062909  0.58755649  0.47121615    -0.02070
C1369       C  0.73782836  0.55575744  0.45739957     0.07860
C1370       C  0.70964180  0.51456133  0.46358128    -0.02260
Br1371     Br  0.67874325  0.47115128  0.44453711    -0.00810
Br1372     Br  0.66655642  0.44845161  0.49209800    -0.00880
Br1373     Br  0.79863180  0.64408916  0.46267103    -0.00840
Br1374     Br  0.78599902  0.62156524  0.51027448    -0.00830
C1375       C  0.56382293  0.46902927  0.56328103    -0.01950
C1376       C  0.57170210  0.48915980  0.58151889     0.07730
C1377       C  0.61242222  0.52187833  0.58611207    -0.02060
C1378       C  0.64562700  0.53135701  0.57343110    -0.02070
C1379       C  0.63880193  0.50527878  0.55733254     0.07860
C1380       C  0.59746915  0.47501420  0.55179738    -0.02260
Br1381     Br  0.58658689  0.43988940  0.52938249    -0.00810
Br1382     Br  0.50731342  0.43394223  0.55385677    -0.00880
Br1383     Br  0.69949073  0.58168125  0.57718483    -0.00840
Br1384     Br  0.62206124  0.55473276  0.60922382    -0.00830
C1385       C  0.38363754  0.27996016  0.56554156    -0.01950
C1386       C  0.41615861  0.27723209  0.55730521     0.07730
C1387       C  0.45793672  0.30789849  0.56151083    -0.02060
C1388       C  0.46722742  0.33748029  0.57603793    -0.02070
C1389       C  0.43497094  0.34113435  0.58410290     0.07860
C1390       C  0.39315855  0.31291163  0.57840843    -0.02260
Br1391     Br  0.34879844  0.31695367  0.58961420    -0.00810
Br1392     Br  0.32636516  0.23795960  0.55954654    -0.00880
Br1393     Br  0.52435257  0.37127211  0.58511583    -0.00840
Br1394     Br  0.50257523  0.31079223  0.54655114    -0.00830
C1395       C  0.34423675  0.18128927  0.48996580    -0.01950
C1396       C  0.38442438  0.19309880  0.49632830     0.07730
C1397       C  0.41531400  0.19994248  0.48258233    -0.02060
C1398       C  0.40598559  0.19500477  0.46252784    -0.02070
C1399       C  0.36578587  0.18326836  0.45616844     0.07860
C1400       C  0.33490912  0.17630647  0.46992944    -0.02260
Br1401     Br  0.27924925  0.15821870  0.46142768    -0.00810
Br1402     Br  0.30146666  0.17053496  0.50878723    -0.00880
Br1403     Br  0.44856670  0.20520550  0.44370143    -0.00840
Br1404     Br  0.47079456  0.21730577  0.49117175    -0.00830
C1405       C  0.61227750  0.08421529  0.58072617    -0.01950
C1406       C  0.58095377  0.09303894  0.57860080     0.07730
C1407       C  0.58206298  0.11627316  0.56247326    -0.02060
C1408       C  0.61734578  0.13596531  0.55023594    -0.02070
C1409       C  0.65023744  0.12955790  0.55304837     0.07860
C1410       C  0.64671374  0.10210691  0.56779340    -0.02260
Br1411     Br  0.68962588  0.09002447  0.57043771    -0.00810
Br1412     Br  0.60771621  0.04759804  0.60127543    -0.00880
Br1413     Br  0.62168139  0.17450842  0.53085392    -0.00840
Br1414     Br  0.53454670  0.11974264  0.55661016    -0.00830
C1415       C  0.39360766  0.11057155  0.56347559    -0.01950
C1416       C  0.42335693  0.15208306  0.55821363     0.07730
C1417       C  0.46445372  0.17159251  0.56527255    -0.02060
C1418       C  0.47481623  0.15188944  0.57921990    -0.02070
C1419       C  0.44556568  0.10965769  0.58418465     0.07860
C1420       C  0.40488955  0.08899651  0.57607627    -0.02260
Br1421     Br  0.36306834  0.03252915  0.58352566    -0.00810
Br1422     Br  0.33715236  0.08379244  0.55386185    -0.00880
Br1423     Br  0.52955631  0.18461954  0.59124670    -0.00840
Br1424     Br  0.50773680  0.22456240  0.55476529    -0.00830
C1425       C  0.12729692  0.77162757  0.56938296    -0.01950
C1426       C  0.15199065  0.76231924  0.58081526     0.07730
C1427       C  0.17757863  0.75075064  0.57169362    -0.02060
C1428       C  0.17820295  0.74811934  0.55119200    -0.02070
C1429       C  0.15356762  0.75758547  0.53972196     0.07860
C1430       C  0.12811211  0.76931794  0.54889055    -0.02260
Br1431     Br  0.09514369  0.78328721  0.53333445    -0.00810
Br1432     Br  0.09300242  0.78846724  0.58182170    -0.00880
Br1433     Br  0.21152373  0.72984315  0.53891453    -0.00840
Br1434     Br  0.21111354  0.73775268  0.58739943    -0.00830
C1435       C  0.34695721  0.06726062  0.72953813    -0.01950
C1436       C  0.33935101  0.09812170  0.72397968     0.07730
C1437       C  0.33374878  0.10305748  0.70407816    -0.02060
C1438       C  0.33952947  0.07996101  0.68974598    -0.02070
C1439       C  0.34937088  0.05066771  0.69531169     0.07860
C1440       C  0.35252562  0.04399289  0.71525863    -0.02260
Br1441     Br  0.36425295  0.00269233  0.72296191    -0.00810
Br1442     Br  0.34540770  0.05384758  0.75668452    -0.00880
Br1443     Br  0.33292720  0.08757625  0.66247954    -0.00840
Br1444     Br  0.31456862  0.13860508  0.69657356    -0.00830
C1445       C  0.24565559  0.91667618  0.64745958    -0.01950
C1446       C  0.27915237  0.91813109  0.65711919     0.07730
C1447       C  0.27808549  0.88099605  0.66019723    -0.02060
C1448       C  0.24482766  0.84298675  0.65275139    -0.02070
C1449       C  0.21224683  0.84189207  0.64245347     0.07860
C1450       C  0.21215808  0.87857343  0.64027605    -0.02260
Br1451     Br  0.16638073  0.87656565  0.62700128    -0.00810
Br1452     Br  0.24689379  0.96723344  0.64284273    -0.00880
Br1453     Br  0.24486051  0.79273319  0.65572761    -0.00840
Br1454     Br  0.32252445  0.88240227  0.67445149    -0.00830
C1455       C  0.84327892  0.58738470  0.68908784    -0.01950
C1456       C  0.85936357  0.56206707  0.69211713     0.07730
C1457       C  0.84820313  0.53769214  0.70920217    -0.02060
C1458       C  0.82207794  0.53953625  0.72334674    -0.02070
C1459       C  0.80877168  0.56748815  0.72097027     0.07860
C1460       C  0.81972629  0.59157693  0.70376970    -0.02260
Br1461     Br  0.80186015  0.62986576  0.69984136    -0.00810
Br1462     Br  0.85041234  0.61365044  0.66414614    -0.00880
Br1463     Br  0.80629510  0.50491475  0.74633425    -0.00840
Br1464     Br  0.86960649  0.50253269  0.71349784    -0.00830
C1465       C  0.03400537  0.63599663  0.65880442    -0.01950
C1466       C  0.99742639  0.63677184  0.65659935     0.07730
C1467       C  0.00067212  0.67265365  0.64878809    -0.02060
C1468       C  0.03968159  0.70655078  0.64259577    -0.02070
C1469       C  0.07536638  0.70420483  0.64333913     0.07860
C1470       C  0.07275222  0.66934828  0.65185846    -0.02260
Br1471     Br  0.12199398  0.66672719  0.65316671    -0.00810
Br1472     Br  0.03096245  0.58901646  0.67115913    -0.00880
Br1473     Br  0.04427054  0.75598545  0.63237611    -0.00840
Br1474     Br  0.95161311  0.67449928  0.64466687    -0.00830
C1475       C  0.19088642  0.43990477  0.54459867    -0.01950
C1476       C  0.16739248  0.40949007  0.53030428     0.07730
C1477       C  0.13756737  0.36825751  0.53583962    -0.02060
C1478       C  0.13112194  0.35737138  0.55569695    -0.02070
C1479       C  0.15450601  0.38777273  0.57000347     0.07860
C1480       C  0.18459983  0.42897245  0.56446417    -0.02260
Br1481     Br  0.21640132  0.47047185  0.58415399    -0.00810
Br1482     Br  0.23073158  0.49673143  0.53696458    -0.00880
Br1483     Br  0.09040715  0.30080322  0.56334917    -0.00840
Br1484     Br  0.10515538  0.32702596  0.51615828    -0.00830
C1485       C  0.86466682  0.25951263  0.69209465    -0.01950
C1486       C  0.87719861  0.30168792  0.69167167     0.07730
C1487       C  0.86326122  0.31709204  0.70659535    -0.02060
C1488       C  0.83473165  0.29000551  0.72090072    -0.02070
C1489       C  0.82395852  0.24814953  0.72201218     0.07860
C1490       C  0.84030939  0.23365655  0.70768619    -0.02260
Br1491     Br  0.82844694  0.17769829  0.70823786    -0.00810
Br1492     Br  0.87740854  0.23535162  0.67050359    -0.00880
Br1493     Br  0.81082353  0.31159460  0.73850357    -0.00840
Br1494     Br  0.88478643  0.37601770  0.70809945    -0.00830
C1495       C  0.99325678  0.32420198  0.63389475    -0.01950
C1496       C  0.99914422  0.35760788  0.64547729     0.07730
C1497       C  0.03990501  0.39190965  0.64901890    -0.02060
C1498       C  0.07462917  0.39275389  0.64103609    -0.02070
C1499       C  0.06870460  0.35887759  0.62985915     0.07860
C1500       C  0.02798255  0.32449370  0.62642013    -0.02260
Br1501     Br  0.01987968  0.27815619  0.61108417    -0.00810
Br1502     Br  0.93763104  0.27942773  0.62701042    -0.00880
Br1503     Br  0.13016551  0.44119042  0.64451138    -0.00840
Br1504     Br  0.04792260  0.43819236  0.66432089    -0.00830
C1505       C  0.29660244  0.24870001  0.72079762    -0.01950
C1506       C  0.32714297  0.23825610  0.72141093     0.07730
C1507       C  0.35618147  0.25112531  0.70577402    -0.02060
C1508       C  0.35322863  0.27217502  0.68964484    -0.02070
C1509       C  0.32720472  0.28818693  0.69056289     0.07860
C1510       C  0.29949778  0.27696493  0.70666242    -0.02260
Br1511     Br  0.26806896  0.30281187  0.71093686    -0.00810
Br1512     Br  0.24992697  0.22437185  0.73877685    -0.00880
Br1513     Br  0.38220689  0.27520056  0.66572387    -0.00840
Br1514     Br  0.40003812  0.23967279  0.70563902    -0.00830
C1515       C  0.23293007  0.31179019  0.63119464    -0.01950
C1516       C  0.25838567  0.33862551  0.64622911     0.07730
C1517       C  0.25026686  0.36765326  0.65423538    -0.02060
C1518       C  0.21871640  0.37198630  0.64632389    -0.02070
C1519       C  0.19416779  0.34629376  0.63069634     0.07860
C1520       C  0.20049254  0.31520447  0.62360476    -0.02260
Br1521     Br  0.16488327  0.27736553  0.60339285    -0.00810
Br1522     Br  0.24386360  0.27174884  0.62045661    -0.00880
Br1523     Br  0.21195684  0.41564010  0.65594158    -0.00840
Br1524     Br  0.28349399  0.40240283  0.67578031    -0.00830
loop_ 
_geom_bond_atom_site_label_1 
_geom_bond_atom_site_label_2 
_geom_bond_distance 
_geom_bond_site_symmetry_2 
_ccdc_geom_bond_type 
C1            C2   1.412       .  A
C1            C6   1.409       .  A
C1         C1509   1.499       .  S
C2            C3   1.405       .  A
C2            H7   1.083       .  S
C3            C4   1.404       .  A
C3           C89   1.484       .  S
C4            C5   1.399       .  A
C4            H8   1.084       .  S
C5            C6   1.400       .  A
C5         C1516   1.479       .  S
C6            H9   1.084       .  S
C10          C11   1.404       .  A
C10          C15   1.401       .  A
C10        C1496   1.480       .  S
C11          C12   1.407       .  A
C11          H16   1.083       .  S
C12          C13   1.404       .  A
C12        C1486   1.491       .  S
C13          C14   1.403       .  A
C13          H17   1.084       .  S
C14          C15   1.405       .  A
C14         C122   1.479       .  S
C15          H18   1.084       .  S
C19          C20   1.408       .  A
C19          C24   1.403       .  A
C19        C1519   1.485       .  S
C20          C21   1.406       .  A
C20          H25   1.083       .  S
C21          C22   1.400       .  A
C21        C1499   1.478       .  S
C22          C23   1.398       .  A
C22          H26   1.084       .  S
C23          C24   1.398       .  A
C23        C1479   1.472       .  S
C24          H27   1.084       .  S
C28          C29   1.405       .  A
C28          C33   1.407       .  A
C28        C1456   1.488       .  S
C29          C30   1.409       .  A
C29          H34   1.085       .  S
C30          C31   1.404       .  A
C30         C120   1.484       .  S
C31          C32   1.403       .  A
C31          H35   1.083       .  S
C32          C33   1.405       .  A
C32        C1466   1.488       .  S
C33          H36   1.084       .  S
C37          C38   1.409       .  A
C37          C42   1.404   1_545  A
C37        C1439   1.482       .  S
C38          C39   1.409       .  A
C38          H43   1.085       .  S
C39          C40   1.407   1_545  A
C39          C65   1.487       .  S
C40          C41   1.400       .  A
C40          H44   1.083       .  S
C41          C42   1.400       .  A
C41        C1446   1.483       .  S
C42          H45   1.084       .  S
C46          C47   1.405       .  A
C46          C51   1.404       .  A
C46        C1449   1.480       .  S
C47          C48   1.404       .  A
C47          H52   1.083       .  S
C48          C49   1.403       .  A
C48        C1469   1.478       .  S
C49          C50   1.400       .  A
C49          H53   1.085       .  S
C50          C51   1.401       .  A
C50        C1426   1.479       .  S
C51          H54   1.085       .  S
O55         Ni63   1.911       .  S
O55          C65   1.281       .  A
O56         Ni63   1.907       .  S
O56          C66   1.276       .  A
O57         Ni63   1.926   1_565  S
O57          C67   1.285   1_565  A
O58         Ni63   1.928       .  S
O58          C68   1.284       .  A
O59         Ni64   1.899       .  S
O59          C68   1.276       .  A
O60         Ni64   1.903       .  S
O60          C67   1.278       .  A
O61         Ni64   1.933       .  S
O61          C66   1.285       .  A
O62         Ni64   1.930       .  S
O62          C65   1.283       .  A
Ni63        Ni64   2.386       .  S
C66        C1406   1.473       .  S
C67         C126   1.479       .  S
C68        C1419   1.486       .  S
C69          C70   1.407       .  A
C69          C74   1.406       .  A
C69        C1396   1.477       .  S
C70          C71   1.402       .  A
C70          H75   1.084       .  S
C71          C72   1.401       .  A
C71        C1416   1.481       .  S
C72          C73   1.399       .  A
C72          H76   1.084       .  S
C73          C74   1.398       .  A
C73        C1386   1.475       .  S
C74          H77   1.084       .  S
O78         Ni86   1.927       .  S
O78          C88   1.285       .  A
O79         Ni86   1.925       .  S
O79          C89   1.284       .  A
O80         Ni86   1.900       .  S
O80          C90   1.276       .  A
O81         Ni86   1.901       .  S
O81          C91   1.277       .  A
O82         Ni87   1.933       .  S
O82          C91   1.286       .  A
O83         Ni87   1.930       .  S
O83          C90   1.284       .  A
O84         Ni87   1.912       .  S
O84          C89   1.281       .  A
O85         Ni87   1.908       .  S
O85          C88   1.276       .  A
Ni86        Ni87   2.388       .  S
C88        C1376   1.472       .  S
C90        C1389   1.475       .  S
C91         C135   1.483       .  S
C92          C93   1.400       .  A
C92          C97   1.401       .  A
C92        C1366   1.473       .  S
C93          C94   1.399       .  A
C93          H98   1.084       .  S
C94          C95   1.405       .  A
C94        C1379   1.481       .  S
C95          C96   1.408       .  A
C95          H99   1.083       .  S
C96          C97   1.405       .  A
C96        C1356   1.494       .  S
C97         H100   1.083       .  S
C101        C102   1.409       .  A
C101        C106   1.403       .  A
C101       C1346   1.478       .  S
C102        C103   1.406       .  A
C102        H107   1.084       .  S
C103        C104   1.397       .  A
C103       C1409   1.480       .  S
C104        C105   1.398       .  A
C104        H108   1.084       .  S
C105        C106   1.399       .  A
C105       C1336   1.472       .  S
C106        H109   1.085       .  S
O110       Ni118   1.913       .  S
O110        C120   1.280       .  A
O111       Ni118   1.908       .  S
O111        C121   1.279       .  A
O112       Ni118   1.915       .  S
O112        C122   1.282       .  A
O113       Ni118   1.913       .  S
O113        C123   1.281       .  A
O114       Ni119   1.914       .  S
O114        C123   1.279       .  A
O115       Ni119   1.914       .  S
O115        C122   1.281       .  A
O116       Ni119   1.919       .  S
O116        C121   1.281       .  A
O117       Ni119   1.923       .  S
O117        C120   1.284       .  A
Ni118      Ni119   2.390       .  S
C121       C1339   1.469       .  S
C123       C1359   1.470       .  S
C124        C125   1.400       .  A
C124        C129   1.406       .  A
C124       C1326   1.478       .  S
C125        C126   1.401   1_565  A
C125        H130   1.084       .  S
C126        C127   1.407       .  A
C127        C128   1.406       .  A
C127        H131   1.084       .  S
C128        C129   1.408   1_545  A
C128       C1316   1.498       .  S
C129        H132   1.083       .  S
C133        C134   1.406       .  A
C133        C138   1.405       .  A
C133       C1296   1.493       .  S
C134        C135   1.407       .  A
C134        H139   1.084       .  S
C135        C136   1.400       .  A
C136        C137   1.404       .  A
C136        H140   1.084       .  S
C137        C138   1.405       .  A
C137       C1306   1.480       .  S
C138        H141   1.084       .  S
C142        C143   1.403       .  A
C142        C147   1.400       .  A
C142       C1309   1.474       .  S
C143        C144   1.403       .  A
C143        H148   1.083       .  S
C144        C145   1.401       .  A
C144       C1329   1.474       .  S
C145        C146   1.400       .  A
C145        H149   1.084       .  S
C146        C147   1.399       .  A
C146       C1286   1.472       .  S
C147        H150   1.084       .  S
O151       Ni159   1.922       .  S
O151        C161   1.282       .  A
O152       Ni159   1.923       .  S
O152        C162   1.281       .  A
O153       Ni159   1.918       .  S
O153        C163   1.281       .  A
O154       Ni159   1.919       .  S
O154        C164   1.282       .  A
O155       Ni160   1.919       .  S
O155        C164   1.281       .  A
O156       Ni160   1.915       .  S
O156        C163   1.281       .  A
O157       Ni160   1.919       .  S
O157        C162   1.281       .  A
O158       Ni160   1.920       .  S
O158        C161   1.281       .  A
Ni159      Ni160   2.389       .  S
C161       C1279   1.480       .  S
C162       C1299   1.479       .  S
C163       C1269   1.480       .  S
C164       C1459   1.483       .  S
O165       Ni173   1.930       .  S
O165        C175   1.283       .  A
O166       Ni173   1.930       .  S
O166        C176   1.283       .  A
O167       Ni173   1.923       .  S
O167        C177   1.282       .  A
O168       Ni173   1.919       .  S
O168        C178   1.280       .  A
O169       Ni174   1.921       .  S
O169        C178   1.282       .  A
O170       Ni174   1.915       .  S
O170        C177   1.279       .  A
O171       Ni174   1.923       .  S
O171        C176   1.281       .  A
O172       Ni174   1.924       .  S
O172        C175   1.281       .  A
Ni173      Ni174   2.377       .  S
C175       C1256   1.483       .  S
C176       C1319   1.509       .  S
C177       C1249   1.498       .  S
C178       C1489   1.497       .  S
O179       Ni187   1.914       .  S
O179        C189   1.279       .  A
O180       Ni187   1.917       .  S
O180        C190   1.281       .  A
O181       Ni187   1.924       .  S
O181        C191   1.281       .  A
O182       Ni187   1.930       .  S
O182        C192   1.284       .  A
O183       Ni188   1.921       .  S
O183        C192   1.280       .  A
O184       Ni188   1.930       .  S
O184        C191   1.283       .  A
O185       Ni188   1.927       .  S
O185        C190   1.283       .  A
O186       Ni188   1.926       .  S
O186        C189   1.284       .  A
Ni187      Ni188   2.384       .  S
C189       C1229   1.496       .  S
C190       C1506   1.494       .  S
C191       C1239   1.484       .  S
C192       C1436   1.481       .  S
C193        C194   1.398       .  A
C193        C198   1.408       .  A
C193       C1236   1.488       .  S
C194        C195   1.401       .  A
C194        H199   1.084       .  S
C195        C196   1.403       .  A
C195        C306   1.486       .  S
C196        C197   1.416       .  A
C196        H200   1.081       .  S
C197        C198   1.416       .  A
C197       C1219   1.515       .  S
C198        H201   1.081       .  S
C202        C203   1.407       .  A
C202        C207   1.404       .  A
C202       C1206   1.489   1_655  S
C203        C204   1.405       .  A
C203        H208   1.083       .  S
C204        C205   1.402       .  A
C204       C1259   1.482       .  S
C205        C206   1.405       .  A
C205        H209   1.084       .  S
C206        C207   1.406       .  A
C206        C282   1.481       .  S
C207        H210   1.084       .  S
C211        C212   1.413       .  A
C211        C216   1.407       .  A
C211       C1216   1.502       .  S
C212        C213   1.407       .  A
C212        H217   1.081       .  S
C213        C214   1.401       .  A
C213       C1209   1.481       .  S
C214        C215   1.399       .  A
C214        H218   1.084       .  S
C215        C216   1.397       .  A
C215       C1196   1.479       .  S
C216        H219   1.083       .  S
O220       Ni228   1.907       .  S
O220        C230   1.278       .  A
O221       Ni228   1.903       .  S
O221        C231   1.278       .  A
O222       Ni228   1.926       .  S
O222        C232   1.285       .  A
O223       Ni228   1.922       .  S
O223        C233   1.284       .  A
O224       Ni229   1.902       .  S
O224        C233   1.276       .  A
O225       Ni229   1.906   1_565  S
O225        C232   1.279   1_565  A
O226       Ni229   1.929       .  S
O226        C231   1.284       .  A
O227       Ni229   1.928   1_565  S
O227        C230   1.286   1_565  A
Ni228      Ni229   2.389       .  S
C230        C327   1.483       .  S
C231       C1186   1.476       .  S
C232        C247   1.481       .  S
C233       C1176   1.468       .  S
C234        C235   1.405       .  A
C234        C239   1.407       .  A
C234       C1166   1.481       .  S
C235        C236   1.399   1_554  A
C235        H240   1.085       .  S
C236        C237   1.399       .  A
C236       C1189   1.477       .  S
C237        C238   1.403       .  A
C237        H241   1.084       .  S
C238        C239   1.405   1_556  A
C238       C1156   1.490       .  S
C239        H242   1.084       .  S
C243        C244   1.401       .  A
C243        C248   1.400       .  A
C243       C1146   1.479       .  S
C244        C245   1.405   1_565  A
C244        H249   1.083       .  S
C245        C246   1.407       .  A
C245       C1246   1.489       .  S
C246        C247   1.403       .  A
C246        H250   1.084       .  S
C247        C248   1.407   1_545  A
C248        H251   1.084       .  S
C252        C253   1.403       .  A
C252        C257   1.401       .  A
C252       C1266   1.480       .  S
C253        C254   1.405       .  A
C253        H258   1.084       .  S
C254        C255   1.407       .  A
C254        C304   1.485       .  S
C255        C256   1.405       .  A
C255        H259   1.083       .  S
C256        C257   1.401       .  A
C256       C1136   1.478       .  S
C257        H260   1.085       .  S
C261        C262   1.409       .  A
C261        C266   1.403       .  A
C261       C1139   1.485       .  S
C262        C263   1.408       .  A
C262        H267   1.083       .  S
C263        C264   1.401       .  A
C263       C1149   1.480       .  S
C264        C265   1.397       .  A
C264        H268   1.084       .  S
C265        C266   1.398       .  A
C265       C1129   1.471       .  S
C266        H269   1.084       .  S
O270       Ni278   1.913       .  S
O270        C280   1.283       .  A
O271       Ni278   1.917       .  S
O271        C281   1.279       .  A
O272       Ni278   1.918       .  S
O272        C282   1.282       .  A
O273       Ni278   1.918       .  S
O273        C283   1.281       .  A
O274       Ni279   1.916       .  S
O274        C283   1.281       .  A
O275       Ni279   1.915       .  S
O275        C282   1.281       .  A
O276       Ni279   1.921       .  S
O276        C281   1.283       .  A
O277       Ni279   1.925       .  S
O277        C280   1.282       .  A
Ni278      Ni279   2.388       .  S
C280        C318   1.485       .  S
C281       C1159   1.476       .  S
C283       C1116   1.475       .  S
C284        C285   1.421       .  A
C284        C289   1.420       .  A
C284       C1106   1.523       .  S
C285        C286   1.399   1_554  A
C285        H290   1.078       .  S
C286        C287   1.386       .  A
C286       C1119   1.479       .  S
C287        C288   1.394       .  A
C287        H291   1.084       .  S
C288        C289   1.409   1_556  A
C288       C1099   1.484       .  S
C289        H292   1.076       .  S
O293       Ni301   1.925       .  S
O293        C303   1.283       .  A
O294       Ni301   1.917       .  S
O294        C304   1.282       .  A
O295       Ni301   1.900       .  S
O295        C305   1.276       .  A
O296       Ni301   1.906       .  S
O296        C306   1.279       .  A
O297       Ni302   1.934       .  S
O297        C306   1.285       .  A
O298       Ni302   1.926       .  S
O298        C305   1.283       .  A
O299       Ni302   1.921       .  S
O299        C304   1.282       .  A
O300       Ni302   1.920       .  S
O300        C303   1.281       .  A
Ni301      Ni302   2.381       .  S
C303       C1086   1.488       .  S
C305       C1096   1.497       .  S
C307        C308   1.404       .  A
C307        C312   1.405       .  A
C307       C1079   1.476       .  S
C308        C309   1.404   1_554  A
C308        H313   1.084       .  S
C309        C310   1.399       .  A
C309       C1179   1.486       .  S
C310        C311   1.397       .  A
C310        H314   1.084       .  S
C311        C312   1.402   1_556  A
C311       C1089   1.479       .  S
C312        H315   1.083       .  S
C316        C317   1.413       .  A
C316        C321   1.408       .  A
C316       C1276   1.492       .  S
C317        C318   1.410       .  A
C317        H322   1.084       .  S
C318        C319   1.403       .  A
C319        C320   1.396       .  A
C319        H323   1.084       .  S
C320        C321   1.399       .  A
C320       C1066   1.478       .  S
C321        H324   1.084       .  S
C325        C326   1.409       .  A
C325        C330   1.407   1_545  A
C325       C1226   1.496       .  S
C326        C327   1.411       .  A
C326        H331   1.085       .  S
C327        C328   1.401   1_545  A
C328        C329   1.399       .  A
C328        H332   1.083       .  S
C329        C330   1.403       .  A
C329       C1059   1.476       .  S
C330        H333   1.084       .  S
C334        C335   1.404       .  A
C334        C339   1.404       .  A
C334       C1056   1.481       .  S
C335        C336   1.404       .  A
C335        H340   1.083       .  S
C336        C337   1.405       .  A
C336       C1069   1.482       .  S
C337        C338   1.402       .  A
C337        H341   1.085       .  S
C338        C339   1.399       .  A
C338       C1046   1.480       .  S
C339        H342   1.085       .  S
C343        C344   1.413   1_655  A
C343        C348   1.411       .  A
C343       C1029   1.499   1_655  S
C344        C345   1.408   1_455  A
C344        H349   1.084       .  S
C345        C346   1.405       .  A
C345        C430   1.484   1_655  S
C346        C347   1.396       .  A
C346        H350   1.083       .  S
C347        C348   1.403       .  A
C347       C1036   1.484       .  S
C348        H351   1.084       .  S
C352        C353   1.408       .  A
C352        C357   1.406       .  A
C352       C1006   1.491       .  S
C353        C354   1.407       .  A
C353        H358   1.085       .  S
C354        C355   1.400       .  A
C354        C407   1.485       .  S
C355        C356   1.407       .  A
C355        H359   1.082       .  S
C356        C357   1.409       .  A
C356       C1016   1.503   1_565  S
C357        H360   1.081       .  S
C361        C362   1.409       .  A
C361        C366   1.416       .  A
C361       C1019   1.504       .  S
C362        C363   1.394       .  A
C362        H367   1.084       .  S
C363        C364   1.393       .  A
C363       C1349   1.474       .  S
C364        C365   1.402       .  A
C364        H368   1.085       .  S
C365        C366   1.408       .  A
C365       C1039   1.482       .  S
C366        H369   1.079       .  S
C370        C371   1.404       .  A
C370        C375   1.405       .  A
C370        C989   1.483       .  S
C371        C372   1.405       .  A
C371        H376   1.084       .  S
C372        C373   1.404       .  A
C372        C454   1.482       .  S
C373        C374   1.402       .  A
C373        H377   1.084       .  S
C374        C375   1.403       .  A
C374        C996   1.479       .  S
C375        H378   1.084       .  S
C379        C380   1.399       .  A
C379        C384   1.401       .  A
C379        C976   1.474   1_565  S
C380        C381   1.404       .  A
C380        H385   1.084       .  S
C381        C382   1.399       .  A
C381        C409   1.474       .  S
C382        C383   1.402       .  A
C382        H386   1.084       .  S
C383        C384   1.404       .  A
C383        C966   1.483       .  S
C384        H387   1.083       .  S
C388        C389   1.405       .  A
C388        C393   1.403       .  A
C388        C999   1.479       .  S
C389        C390   1.402       .  A
C389        H394   1.084       .  S
C390        C391   1.399       .  A
C390       C1399   1.478       .  S
C391        C392   1.400       .  A
C391        H395   1.084       .  S
C392        C393   1.402       .  A
C392        C979   1.473       .  S
C393        H396   1.083       .  S
O397       Ni405   1.916       .  S
O397        C407   1.279       .  A
O398       Ni405   1.904       .  S
O398        C408   1.277       .  A
O399       Ni405   1.914       .  S
O399        C409   1.282       .  A
O400       Ni405   1.923       .  S
O400        C410   1.283       .  A
O401       Ni406   1.905       .  S
O401        C410   1.276       .  A
O402       Ni406   1.905       .  S
O402        C409   1.278       .  A
O403       Ni406   1.924       .  S
O403        C408   1.283       .  A
O404       Ni406   1.927       .  S
O404        C407   1.286       .  A
Ni405      Ni406   2.387       .  S
C408        C959   1.486       .  S
C410        C946   1.465       .  S
C411        C412   1.398       .  A
C411        C416   1.405       .  A
C411       C1289   1.469       .  S
C412        C413   1.393       .  A
C412        H417   1.084       .  S
C413        C414   1.396       .  A
C413        C949   1.469       .  S
C414        C415   1.407       .  A
C414        H418   1.083       .  S
C415        C416   1.408       .  A
C415        C936   1.499       .  S
C416        H419   1.080       .  S
O420       Ni428   1.904       .  S
O420        C430   1.280   1_655  A
O421       Ni428   1.901   1_455  S
O421        C431   1.275       .  A
O422       Ni428   1.927       .  S
O422        C432   1.284       .  A
O423       Ni428   1.925   1_455  S
O423        C433   1.284       .  A
O424       Ni429   1.893       .  S
O424        C433   1.275       .  A
O425       Ni429   1.894       .  S
O425        C432   1.277   1_455  A
O426       Ni429   1.933       .  S
O426        C431   1.286       .  A
O427       Ni429   1.932       .  S
O427        C430   1.284       .  A
Ni428      Ni429   2.389   1_655  S
C431        C916   1.472       .  S
C432        C479   1.475       .  S
C433        C929   1.473       .  S
C434        C435   1.408       .  A
C434        C439   1.409       .  A
C434       C1429   1.482       .  S
C435        C436   1.401       .  A
C435        H440   1.084       .  S
C436        C437   1.396       .  A
C436        C956   1.480       .  S
C437        C438   1.396       .  A
C437        H441   1.085       .  S
C438        C439   1.405       .  A
C438        C919   1.487       .  S
C439        H442   1.084       .  S
O443       Ni451   1.911       .  S
O443        C453   1.280       .  A
O444       Ni451   1.915       .  S
O444        C454   1.281       .  A
O445       Ni451   1.918       .  S
O445        C455   1.281       .  A
O446       Ni451   1.927       .  S
O446        C456   1.282       .  A
O447       Ni452   1.918       .  S
O447        C456   1.283       .  A
O448       Ni452   1.920       .  S
O448        C455   1.281       .  A
O449       Ni452   1.918       .  S
O449        C454   1.282       .  A
O450       Ni452   1.919       .  S
O450        C453   1.279       .  A
Ni451      Ni452   2.383       .  S
C453        C939   1.494       .  S
C455        C906   1.478       .  S
C456        C468   1.489       .  S
C457        C458   1.399       .  A
C457        C462   1.404       .  A
C457       C1476   1.471       .  S
C458        C459   1.396       .  A
C458        H463   1.084       .  S
C459        C460   1.398       .  A
C459        C926   1.469       .  S
C460        C461   1.400       .  A
C460        H464   1.084       .  S
C461        C462   1.406       .  A
C461        C909   1.484       .  S
C462        H465   1.083       .  S
C466        C467   1.416       .  A
C466        C471   1.404       .  A
C466        C886   1.498       .  S
C467        C468   1.410       .  A
C467        H472   1.083       .  S
C468        C469   1.403       .  A
C469        C470   1.399       .  A
C469        H473   1.084       .  S
C470        C471   1.398       .  A
C470        C896   1.476       .  S
C471        H474   1.084       .  S
C475        C476   1.403       .  A
C475        C480   1.402       .  A
C475        C876   1.473       .  S
C476        C477   1.402       .  A
C476        H481   1.083       .  S
C477        C478   1.398       .  A
C477        C866   1.479   1_655  S
C478        C479   1.405       .  A
C478        H482   1.084   1_655  S
C479        C480   1.401       .  A
C480        H483   1.084       .  S
C484        C485   1.401       .  A
C484        C489   1.405       .  A
C484        C899   1.478       .  S
C485        C486   1.398       .  A
C485        H490   1.084       .  S
C486        C487   1.398       .  A
C486       C1369   1.472       .  S
C487        C488   1.402       .  A
C487        H491   1.084       .  S
C488        C489   1.405       .  A
C488        C879   1.479       .  S
C489        H492   1.083       .  S
O493       Ni501   1.923       .  S
O493        C503   1.282       .  A
O494       Ni501   1.916       .  S
O494        C504   1.281       .  A
O495       Ni501   1.921       .  S
O495        C505   1.281       .  A
O496       Ni501   1.920       .  S
O496        C506   1.281       .  A
O497       Ni502   1.920       .  S
O497        C506   1.280       .  A
O498       Ni502   1.915       .  S
O498        C505   1.280       .  A
O499       Ni502   1.923       .  S
O499        C504   1.282       .  A
O500       Ni502   1.918       .  S
O500        C503   1.281       .  A
Ni501      Ni502   2.383       .  S
C503        C986   1.487       .  S
C504        C846   1.487       .  S
C505        C859   1.474       .  S
C506       C1026   1.505       .  S
O507       Ni515   1.915       .  S
O507        C517   1.282       .  A
O508       Ni515   1.921       .  S
O508        C518   1.281       .  A
O509       Ni515   1.918       .  S
O509        C519   1.280       .  A
O510       Ni515   1.925       .  S
O510        C520   1.282       .  A
O511       Ni516   1.928       .  S
O511        C520   1.283       .  A
O512       Ni516   1.935       .  S
O512        C519   1.284       .  A
O513       Ni516   1.927       .  S
O513        C518   1.284       .  A
O514       Ni516   1.923       .  S
O514        C517   1.281       .  A
Ni515      Ni516   2.384       .  S
C517        C889   1.484       .  S
C518        C836   1.503       .  S
C519        C829   1.484       .  S
C520       C1009   1.489       .  S
C521        C522   1.409   1_655  A
C521        C526   1.407       .  A
C521        C849   1.489   1_655  S
C522        C523   1.408   1_455  A
C522        H527   1.085       .  S
C523        C524   1.402       .  A
C523        C594   1.481       .  S
C524        C525   1.396       .  A
C524        H528   1.084       .  S
C525        C526   1.401       .  A
C525        C819   1.477       .  S
C526        H529   1.084       .  S
C530        C531   1.412       .  A
C530        C535   1.408       .  A
C530        C839   1.501       .  S
C531        C532   1.412       .  A
C531        H536   1.084       .  S
C532        C533   1.401       .  A
C532        C617   1.486       .  S
C533        C534   1.399       .  A
C533        H537   1.083       .  S
C534        C535   1.402       .  A
C534        C806   1.477   1_565  S
C535        H538   1.084       .  S
C539        C540   1.404       .  A
C539        C544   1.404       .  A
C539        C809   1.480       .  S
C540        C541   1.400       .  A
C540        H545   1.085       .  S
C541        C542   1.401       .  A
C541       C1169   1.480       .  S
C542        C543   1.405       .  A
C542        H546   1.085       .  S
C543        C544   1.403       .  A
C543        C816   1.479       .  S
C544        H547   1.083       .  S
C548        C549   1.409       .  A
C548        C553   1.405       .  A
C548        C856   1.489       .  S
C549        C550   1.404       .  A
C549        H554   1.083       .  S
C550        C551   1.408       .  A
C550        C634   1.487       .  S
C551        C552   1.404       .  A
C551        H555   1.083       .  S
C552        C553   1.402       .  A
C552        C799   1.487       .  S
C553        H556   1.084       .  S
C557        C558   1.402       .  A
C557        C562   1.406       .  A
C557        C776   1.489       .  S
C558        C559   1.401       .  A
C558        H563   1.084       .  S
C559        C560   1.406       .  A
C559        C619   1.480       .  S
C560        C561   1.404       .  A
C560        H564   1.084       .  S
C561        C562   1.407       .  A
C561        C786   1.483   1_565  S
C562        H565   1.083       .  S
C566        C567   1.406       .  A
C566        C571   1.403       .  A
C566        C789   1.480       .  S
C567        C568   1.406       .  A
C567        H572   1.083       .  S
C568        C569   1.402       .  A
C568        C796   1.480       .  S
C569        C570   1.399       .  A
C569        H573   1.084       .  S
C570        C571   1.400       .  A
C570       C1076   1.476       .  S
C571        H574   1.084       .  S
C575        C576   1.406       .  A
C575        C580   1.409       .  A
C575       C1049   1.479   1_554  S
C576        C577   1.401       .  A
C576        H581   1.084       .  S
C577        C578   1.396       .  A
C577        C769   1.480       .  S
C578        C579   1.403       .  A
C578        H582   1.084       .  S
C579        C580   1.407       .  A
C579        C759   1.492       .  S
C580        H583   1.084       .  S
O584       Ni592   1.917       .  S
O584        C594   1.281   1_455  A
O585       Ni592   1.920       .  S
O585        C595   1.281       .  A
O586       Ni592   1.912       .  S
O586        C596   1.281   1_455  A
O587       Ni592   1.909       .  S
O587        C597   1.281       .  A
O588       Ni593   1.914   1_455  S
O588        C597   1.279       .  A
O589       Ni593   1.911       .  S
O589        C596   1.280       .  A
O590       Ni593   1.920   1_455  S
O590        C595   1.281       .  A
O591       Ni593   1.913       .  S
O591        C594   1.283       .  A
Ni592      Ni593   2.390   1_455  S
C595        C766   1.475       .  S
C596        C655   1.475       .  S
C597        C749   1.470       .  S
C598        C599   1.403       .  A
C598        C603   1.401       .  A
C598       C1126   1.471   1_554  S
C599        C600   1.403       .  A
C599        H604   1.083       .  S
C600        C601   1.398       .  A
C600        C739   1.477       .  S
C601        C602   1.395       .  A
C601        H605   1.085       .  S
C602        C603   1.397       .  A
C602        C726   1.466       .  S
C603        H606   1.084       .  S
O607       Ni615   1.930       .  S
O607        C617   1.286       .  A
O608       Ni615   1.930       .  S
O608        C618   1.284       .  A
O609       Ni615   1.914       .  S
O609        C619   1.280       .  A
O610       Ni615   1.907       .  S
O610        C620   1.278       .  A
O611       Ni616   1.919       .  S
O611        C620   1.282       .  A
O612       Ni616   1.914       .  S
O612        C619   1.283       .  A
O613       Ni616   1.902       .  S
O613        C618   1.276       .  A
O614       Ni616   1.911       .  S
O614        C617   1.279       .  A
Ni615      Ni616   2.383       .  S
C618        C756   1.498       .  S
C620        C729   1.470       .  S
O621       Ni629   1.903       .  S
O621        C631   1.277       .  A
O622       Ni629   1.905       .  S
O622        C632   1.278       .  A
O623       Ni629   1.928       .  S
O623        C633   1.285       .  A
O624       Ni629   1.932       .  S
O624        C634   1.285       .  A
O625       Ni630   1.910       .  S
O625        C634   1.279       .  A
O626       Ni630   1.900       .  S
O626        C633   1.275       .  A
O627       Ni630   1.935       .  S
O627        C632   1.287       .  A
O628       Ni630   1.933       .  S
O628        C631   1.286       .  A
Ni629      Ni630   2.387       .  S
C631        C716   1.481       .  S
C632        C648   1.487       .  S
C633        C736   1.470       .  S
C635        C636   1.401       .  A
C635        C640   1.404       .  A
C635       C1199   1.474       .  S
C636        C637   1.401       .  A
C636        H641   1.084       .  S
C637        C638   1.404       .  A
C637        C746   1.488       .  S
C638        C639   1.401       .  A
C638        H642   1.084       .  S
C639        C640   1.403       .  A
C639        C719   1.482       .  S
C640        H643   1.083       .  S
C644        C645   1.405       .  A
C644        C649   1.407       .  A
C644        C826   1.492       .  S
C645        C646   1.403       .  A
C645        H650   1.085       .  S
C646        C647   1.404       .  A
C646        C706   1.478       .  S
C647        C648   1.403       .  A
C647        H651   1.083       .  S
C648        C649   1.410       .  A
C649        H652   1.083       .  S
C653        C654   1.402       .  A
C653        C658   1.405       .  A
C653        C686   1.482   1_655  S
C654        C655   1.402       .  A
C654        H659   1.084   1_655  S
C655        C656   1.402       .  A
C656        C657   1.400       .  A
C656        H660   1.084       .  S
C657        C658   1.401       .  A
C657        C696   1.474       .  S
C658        H661   1.083       .  S
C662        C663   1.401       .  A
C662        C667   1.398       .  A
C662        C699   1.474       .  S
C663        C664   1.407       .  A
C663        H668   1.080       .  S
C664        C665   1.412       .  A
C664       C1109   1.507       .  S
C665        C666   1.405       .  A
C665        H669   1.080       .  S
C666        C667   1.401       .  A
C666        C709   1.486       .  S
C667        H670   1.084       .  S
O671       Ni679   1.924       .  S
O671        C681   1.283       .  A
O672       Ni679   1.918       .  S
O672        C682   1.281       .  A
O673       Ni679   1.908       .  S
O673        C683   1.278       .  A
O674       Ni679   1.902       .  S
O674        C684   1.276       .  A
O675       Ni680   1.928       .  S
O675        C684   1.283       .  A
O676       Ni680   1.920       .  S
O676        C683   1.282       .  A
O677       Ni680   1.919       .  S
O677        C682   1.280       .  A
O678       Ni680   1.918       .  S
O678        C681   1.280       .  A
Ni679      Ni680   2.383       .  S
C681        C869   1.481       .  S
C682        C779   1.494       .  S
C683        C689   1.470       .  S
C684        C969   1.497       .  S
C685        C686   1.412   1_655  A
C685        C690   1.406   1_655  A
C685       Br692   1.933       .  S
C686        C687   1.414       .  A
C687        C688   1.405       .  A
C687       Br694   1.933       .  S
C688        C689   1.407       .  A
C688       Br693   1.932       .  S
C689        C690   1.409       .  A
C690       Br691   1.929       .  S
C695        C696   1.410       .  A
C695        C700   1.407       .  A
C695       Br702   1.929       .  S
C696        C697   1.408       .  A
C697        C698   1.405       .  A
C697       Br704   1.931       .  S
C698        C699   1.410       .  A
C698       Br703   1.931       .  S
C699        C700   1.407       .  A
C700       Br701   1.927       .  S
C705        C706   1.409       .  A
C705        C710   1.411       .  A
C705       Br712   1.928       .  S
C706        C707   1.406       .  A
C707        C708   1.405       .  A
C707       Br714   1.933       .  S
C708        C709   1.415       .  A
C708       Br713   1.932       .  S
C709        C710   1.412       .  A
C710       Br711   1.929       .  S
C715        C716   1.417       .  A
C715        C720   1.406       .  A
C715       Br722   1.935       .  S
C716        C717   1.410       .  A
C717        C718   1.411       .  A
C717       Br724   1.930       .  S
C718        C719   1.412       .  A
C718       Br723   1.930       .  S
C719        C720   1.408       .  A
C720       Br721   1.934       .  S
C725        C726   1.407       .  A
C725        C730   1.406       .  A
C725       Br732   1.929       .  S
C726        C727   1.404       .  A
C727        C728   1.401       .  A
C727       Br734   1.933       .  S
C728        C729   1.410       .  A
C728       Br733   1.920       .  S
C729        C730   1.410       .  A
C730       Br731   1.931       .  S
C735        C736   1.404       .  A
C735        C740   1.404       .  A
C735       Br742   1.922       .  S
C736        C737   1.410       .  A
C737        C738   1.405       .  A
C737       Br744   1.932       .  S
C738        C739   1.412       .  A
C738       Br743   1.932       .  S
C739        C740   1.413       .  A
C740       Br741   1.933       .  S
C745        C746   1.419       .  A
C745        C750   1.406       .  A
C745       Br752   1.932       .  S
C746        C747   1.415       .  A
C747        C748   1.404       .  A
C747       Br754   1.934       .  S
C748        C749   1.407       .  A
C748       Br753   1.932       .  S
C749        C750   1.406       .  A
C750       Br751   1.933       .  S
C755        C756   1.421       .  A
C755        C760   1.398       .  A
C755       Br762   1.942       .  S
C756        C757   1.422       .  A
C757        C758   1.417       .  A
C757       Br764   1.933       .  S
C758        C759   1.412       .  A
C758       Br763   1.930       .  S
C759        C760   1.410       .  A
C760       Br761   1.937       .  S
C765        C766   1.407       .  A
C765        C770   1.404       .  A
C765       Br772   1.928       .  S
C766        C767   1.410       .  A
C767        C768   1.411       .  A
C767       Br774   1.929       .  S
C768        C769   1.410       .  A
C768       Br773   1.927       .  S
C769        C770   1.411       .  A
C770       Br771   1.932       .  S
C775        C776   1.412       .  A
C775        C780   1.411       .  A
C775       Br782   1.928       .  S
C776        C777   1.409       .  A
C777        C778   1.406       .  A
C777       Br784   1.939       .  S
C778        C779   1.419       .  A
C778       Br783   1.926       .  S
C779        C780   1.418       .  A
C780       Br781   1.937       .  S
C785        C786   1.411       .  A
C785        C790   1.411       .  A
C785       Br792   1.928       .  S
C786        C787   1.410       .  A
C787        C788   1.406       .  A
C787       Br794   1.928   1_545  S
C788        C789   1.408       .  A
C788       Br793   1.931       .  S
C789        C790   1.410       .  A
C790       Br791   1.929       .  S
C795        C796   1.409       .  A
C795        C800   1.409       .  A
C795       Br802   1.931       .  S
C796        C797   1.408       .  A
C797        C798   1.408       .  A
C797       Br804   1.930       .  S
C798        C799   1.413       .  A
C798       Br803   1.931       .  S
C799        C800   1.414       .  A
C800       Br801   1.930       .  S
C805        C806   1.408       .  A
C805        C810   1.409       .  A
C805       Br812   1.929       .  S
C806        C807   1.409       .  A
C807        C808   1.404       .  A
C807       Br814   1.929   1_545  S
C808        C809   1.410       .  A
C808       Br813   1.932       .  S
C809        C810   1.411       .  A
C810       Br811   1.928       .  S
C815        C816   1.410       .  A
C815        C820   1.409       .  A
C815       Br822   1.928       .  S
C816        C817   1.408       .  A
C817        C818   1.403       .  A
C817       Br824   1.928       .  S
C818        C819   1.409       .  A
C818       Br823   1.927       .  S
C819        C820   1.409       .  A
C820       Br821   1.929       .  S
C825        C826   1.412       .  A
C825        C830   1.411       .  A
C825       Br832   1.933       .  S
C826        C827   1.414       .  A
C827        C828   1.408       .  A
C827       Br834   1.924       .  S
C828        C829   1.408       .  A
C828       Br833   1.930       .  S
C829        C830   1.409       .  A
C830       Br831   1.915       .  S
C835        C836   1.419       .  A
C835        C840   1.412       .  A
C835       Br842   1.938       .  S
C836        C837   1.421       .  A
C837        C838   1.412       .  A
C837       Br844   1.931       .  S
C838        C839   1.413       .  A
C838       Br843   1.935       .  S
C839        C840   1.415       .  A
C840       Br841   1.931       .  S
C845        C846   1.414       .  A
C845        C850   1.410       .  A
C845       Br852   1.925       .  S
C846        C847   1.414       .  A
C847        C848   1.408       .  A
C847       Br854   1.935       .  S
C848        C849   1.412       .  A
C848       Br853   1.927       .  S
C849        C850   1.411       .  A
C850       Br851   1.933       .  S
C855        C856   1.416       .  A
C855        C860   1.410       .  A
C855       Br862   1.931       .  S
C856        C857   1.414       .  A
C857        C858   1.405       .  A
C857       Br864   1.934       .  S
C858        C859   1.408       .  A
C858       Br863   1.930       .  S
C859        C860   1.409       .  A
C860       Br861   1.930       .  S
C865        C866   1.410       .  A
C865        C870   1.410       .  A
C865       Br872   1.931   1_455  S
C866        C867   1.408       .  A
C867        C868   1.405       .  A
C867       Br874   1.931       .  S
C868        C869   1.409       .  A
C868       Br873   1.923       .  S
C869        C870   1.413       .  A
C870       Br871   1.929       .  S
C875        C876   1.408       .  A
C875        C880   1.404       .  A
C875       Br882   1.928       .  S
C876        C877   1.406       .  A
C877        C878   1.407       .  A
C877       Br884   1.930       .  S
C878        C879   1.412       .  A
C878       Br883   1.926       .  S
C879        C880   1.410       .  A
C880       Br881   1.930       .  S
C885        C886   1.418       .  A
C885        C890   1.410       .  A
C885       Br892   1.932       .  S
C886        C887   1.412       .  A
C887        C888   1.404       .  A
C887       Br894   1.917       .  S
C888        C889   1.410       .  A
C888       Br893   1.935       .  S
C889        C890   1.411       .  A
C890       Br891   1.927       .  S
C895        C896   1.409       .  A
C895        C900   1.408       .  A
C895       Br902   1.929       .  S
C896        C897   1.408       .  A
C897        C898   1.403       .  A
C897       Br904   1.933       .  S
C898        C899   1.410       .  A
C898       Br903   1.927       .  S
C899        C900   1.412       .  A
C900       Br901   1.931       .  S
C905        C906   1.409       .  A
C905        C910   1.403       .  A
C905       Br912   1.919       .  S
C906        C907   1.409       .  A
C907        C908   1.410       .  A
C907       Br914   1.931       .  S
C908        C909   1.415       .  A
C908       Br913   1.932       .  S
C909        C910   1.411       .  A
C910       Br911   1.935       .  S
C915        C916   1.409       .  A
C915        C920   1.406       .  A
C915       Br922   1.932       .  S
C916        C917   1.405       .  A
C917        C918   1.407       .  A
C917       Br924   1.928       .  S
C918        C919   1.415       .  A
C918       Br923   1.930       .  S
C919        C920   1.416       .  A
C920       Br921   1.933       .  S
C925        C926   1.408       .  A
C925        C930   1.405       .  A
C925       Br932   1.931       .  S
C926        C927   1.405       .  A
C927        C928   1.403       .  A
C927       Br934   1.934       .  S
C928        C929   1.418       .  A
C928       Br933   1.937       .  S
C929        C930   1.411       .  A
C930       Br931   1.932       .  S
C935        C936   1.414       .  A
C935        C940   1.400       .  A
C935       Br942   1.934       .  S
C936        C937   1.418       .  A
C937        C938   1.409       .  A
C937       Br944   1.931       .  S
C938        C939   1.417       .  A
C938       Br943   1.932       .  S
C939        C940   1.415       .  A
C940       Br941   1.926       .  S
C945        C946   1.404       .  A
C945        C950   1.403       .  A
C945       Br952   1.930       .  S
C946        C947   1.410       .  A
C947        C948   1.403       .  A
C947       Br954   1.920       .  S
C948        C949   1.404       .  A
C948       Br953   1.930       .  S
C949        C950   1.410       .  A
C950       Br951   1.928       .  S
C955        C956   1.409       .  A
C955        C960   1.401       .  A
C955       Br962   1.940       .  S
C956        C957   1.408       .  A
C957        C958   1.411       .  A
C957       Br964   1.929       .  S
C958        C959   1.418       .  A
C958       Br963   1.933       .  S
C959        C960   1.420       .  A
C960       Br961   1.940       .  S
C965        C966   1.408       .  A
C965        C970   1.406       .  A
C965       Br972   1.939       .  S
C966        C967   1.409       .  A
C967        C968   1.406       .  A
C967       Br974   1.933       .  S
C968        C969   1.425       .  A
C968       Br973   1.938       .  S
C969        C970   1.422       .  A
C970       Br971   1.928       .  S
C975        C976   1.410       .  A
C975        C980   1.404       .  A
C975       Br982   1.929   1_545  S
C976        C977   1.408       .  A
C977        C978   1.407       .  A
C977       Br984   1.928       .  S
C978        C979   1.409       .  A
C978       Br983   1.929       .  S
C979        C980   1.408       .  A
C980       Br981   1.931       .  S
C985        C986   1.415       .  A
C985        C990   1.409       .  A
C985       Br992   1.932       .  S
C986        C987   1.414       .  A
C987        C988   1.408       .  A
C987       Br994   1.925       .  S
C988        C989   1.409       .  A
C988       Br993   1.931       .  S
C989        C990   1.409       .  A
C990       Br991   1.932       .  S
C995        C996   1.410       .  A
C995       C1000   1.407       .  A
C995      Br1002   1.928       .  S
C996        C997   1.409       .  A
C997        C998   1.407       .  A
C997      Br1004   1.930       .  S
C998        C999   1.410       .  A
C998      Br1003   1.928       .  S
C999       C1000   1.409       .  A
C1000     Br1001   1.930       .  S
C1005      C1006   1.412       .  A
C1005      C1010   1.414       .  A
C1005     Br1012   1.930       .  S
C1006      C1007   1.412       .  A
C1007      C1008   1.408       .  A
C1007     Br1014   1.934       .  S
C1008      C1009   1.410       .  A
C1008     Br1013   1.921       .  S
C1009      C1010   1.414       .  A
C1010     Br1011   1.930       .  S
C1015      C1016   1.416       .  A
C1015      C1020   1.398       .  A
C1015     Br1022   1.938       .  S
C1016      C1017   1.420       .  A
C1017      C1018   1.415       .  A
C1017     Br1024   1.932       .  S
C1018      C1019   1.420       .  A
C1018     Br1023   1.932       .  S
C1019      C1020   1.416       .  A
C1020     Br1021   1.936       .  S
C1025      C1026   1.422       .  A
C1025      C1030   1.407       .  A
C1025     Br1032   1.937       .  S
C1026      C1027   1.426       .  A
C1027      C1028   1.413       .  A
C1027     Br1034   1.934       .  S
C1028      C1029   1.412       .  A
C1028     Br1033   1.936       .  S
C1029      C1030   1.412       .  A
C1030     Br1031   1.928       .  S
C1035      C1036   1.413       .  A
C1035      C1040   1.414       .  A
C1035     Br1042   1.928       .  S
C1036      C1037   1.408       .  A
C1037      C1038   1.400       .  A
C1037     Br1044   1.926       .  S
C1038      C1039   1.409       .  A
C1038     Br1043   1.934       .  S
C1039      C1040   1.410       .  A
C1040     Br1041   1.926       .  S
C1045      C1046   1.409       .  A
C1045      C1050   1.406       .  A
C1045     Br1052   1.928       .  S
C1046      C1047   1.409       .  A
C1047      C1048   1.410       .  A
C1047     Br1054   1.928       .  S
C1048      C1049   1.410       .  A
C1048     Br1053   1.928       .  S
C1049      C1050   1.408       .  A
C1050     Br1051   1.930   1_556  S
C1055      C1056   1.410       .  A
C1055      C1060   1.404       .  A
C1055     Br1062   1.931       .  S
C1056      C1057   1.412       .  A
C1057      C1058   1.409       .  A
C1057     Br1064   1.928       .  S
C1058      C1059   1.408       .  A
C1058     Br1063   1.929       .  S
C1059      C1060   1.409       .  A
C1060     Br1061   1.930       .  S
C1065      C1066   1.408       .  A
C1065      C1070   1.408   1_655  A
C1065     Br1072   1.930       .  S
C1066      C1067   1.409   1_655  A
C1067      C1068   1.407       .  A
C1067     Br1074   1.930       .  S
C1068      C1069   1.410       .  A
C1068     Br1073   1.929       .  S
C1069      C1070   1.411       .  A
C1070     Br1071   1.928       .  S
C1075      C1076   1.409       .  A
C1075      C1080   1.406       .  A
C1075     Br1082   1.930       .  S
C1076      C1077   1.410       .  A
C1077      C1078   1.407       .  A
C1077     Br1084   1.929       .  S
C1078      C1079   1.407       .  A
C1078     Br1083   1.928       .  S
C1079      C1080   1.410       .  A
C1080     Br1081   1.930       .  S
C1085      C1086   1.413       .  A
C1085      C1090   1.411       .  A
C1085     Br1092   1.923       .  S
C1086      C1087   1.415       .  A
C1087      C1088   1.404       .  A
C1087     Br1094   1.921       .  S
C1088      C1089   1.407       .  A
C1088     Br1093   1.936       .  S
C1089      C1090   1.409       .  A
C1090     Br1091   1.931       .  S
C1095      C1096   1.421       .  A
C1095      C1100   1.399       .  A
C1095     Br1102   1.940       .  S
C1096      C1097   1.421       .  A
C1097      C1098   1.412       .  A
C1097     Br1104   1.934       .  S
C1098      C1099   1.410       .  A
C1098     Br1103   1.930       .  S
C1099      C1100   1.407       .  A
C1100     Br1101   1.935       .  S
C1105      C1106   1.420       .  A
C1105      C1110   1.401       .  A
C1105     Br1112   1.934       .  S
C1106      C1107   1.430       .  A
C1107      C1108   1.411       .  A
C1107     Br1114   1.928       .  S
C1108      C1109   1.416       .  A
C1108     Br1113   1.937       .  S
C1109      C1110   1.418       .  A
C1110     Br1111   1.933       .  S
C1115      C1116   1.412       .  A
C1115      C1120   1.411       .  A
C1115     Br1122   1.930       .  S
C1116      C1117   1.408       .  A
C1117      C1118   1.403       .  A
C1117     Br1124   1.934       .  S
C1118      C1119   1.414       .  A
C1118     Br1123   1.935       .  S
C1119      C1120   1.407       .  A
C1120     Br1121   1.926       .  S
C1125      C1126   1.410       .  A
C1125      C1130   1.405       .  A
C1125     Br1132   1.931       .  S
C1126      C1127   1.407       .  A
C1127      C1128   1.405       .  A
C1127     Br1134   1.930   1_556  S
C1128      C1129   1.409       .  A
C1128     Br1133   1.929       .  S
C1129      C1130   1.407       .  A
C1130     Br1131   1.930       .  S
C1135      C1136   1.408       .  A
C1135      C1140   1.408       .  A
C1135     Br1142   1.930       .  S
C1136      C1137   1.407       .  A
C1137      C1138   1.408       .  A
C1137     Br1144   1.930       .  S
C1138      C1139   1.412       .  A
C1138     Br1143   1.927       .  S
C1139      C1140   1.413       .  A
C1140     Br1141   1.931       .  S
C1145      C1146   1.410       .  A
C1145      C1150   1.406       .  A
C1145     Br1152   1.930       .  S
C1146      C1147   1.408       .  A
C1147      C1148   1.409       .  A
C1147     Br1154   1.928       .  S
C1148      C1149   1.411       .  A
C1148     Br1153   1.928       .  S
C1149      C1150   1.410       .  A
C1150     Br1151   1.931       .  S
C1155      C1156   1.417       .  A
C1155      C1160   1.409       .  A
C1155     Br1162   1.931   1_556  S
C1156      C1157   1.414       .  A
C1157      C1158   1.406       .  A
C1157     Br1164   1.932       .  S
C1158      C1159   1.407       .  A
C1158     Br1163   1.929       .  S
C1159      C1160   1.408       .  A
C1160     Br1161   1.931       .  S
C1165      C1166   1.409       .  A
C1165      C1170   1.407       .  A
C1165     Br1172   1.930       .  S
C1166      C1167   1.413       .  A
C1167      C1168   1.407       .  A
C1167     Br1174   1.931       .  S
C1168      C1169   1.408       .  A
C1168     Br1173   1.931       .  S
C1169      C1170   1.411       .  A
C1170     Br1171   1.927       .  S
C1175      C1176   1.408       .  A
C1175      C1180   1.405       .  A
C1175     Br1182   1.934       .  S
C1176      C1177   1.405       .  A
C1177      C1178   1.405       .  A
C1177     Br1184   1.931       .  S
C1178      C1179   1.416       .  A
C1178     Br1183   1.932       .  S
C1179      C1180   1.416       .  A
C1180     Br1181   1.932   1_556  S
C1185      C1186   1.411       .  A
C1185      C1190   1.410       .  A
C1185     Br1192   1.931       .  S
C1186      C1187   1.414       .  A
C1187      C1188   1.403       .  A
C1187     Br1194   1.933       .  S
C1188      C1189   1.407       .  A
C1188     Br1193   1.933       .  S
C1189      C1190   1.410       .  A
C1190     Br1191   1.928       .  S
C1195      C1196   1.410       .  A
C1195      C1200   1.409       .  A
C1195     Br1202   1.928       .  S
C1196      C1197   1.412       .  A
C1197      C1198   1.404       .  A
C1197     Br1204   1.933       .  S
C1198      C1199   1.408   1_556  A
C1198     Br1203   1.933       .  S
C1199      C1200   1.407   1_554  A
C1200     Br1201   1.927   1_556  S
C1205      C1206   1.413   1_655  A
C1205      C1210   1.407   1_655  A
C1205     Br1212   1.932       .  S
C1206      C1207   1.415       .  A
C1207      C1208   1.411       .  A
C1207     Br1214   1.930       .  S
C1208      C1209   1.408       .  A
C1208     Br1213   1.929       .  S
C1209      C1210   1.409       .  A
C1210     Br1211   1.932       .  S
C1215      C1216   1.415       .  A
C1215      C1220   1.401       .  A
C1215     Br1222   1.938       .  S
C1216      C1217   1.416       .  A
C1217      C1218   1.414       .  A
C1217     Br1224   1.934       .  S
C1218      C1219   1.425       .  A
C1218     Br1223   1.929       .  S
C1219      C1220   1.420       .  A
C1220     Br1221   1.932       .  S
C1225      C1226   1.413       .  A
C1225      C1230   1.411       .  A
C1225     Br1232   1.934       .  S
C1226      C1227   1.413       .  A
C1227      C1228   1.410       .  A
C1227     Br1234   1.930       .  S
C1228      C1229   1.417       .  A
C1228     Br1233   1.937       .  S
C1229      C1230   1.421       .  A
C1230     Br1231   1.937       .  S
C1235      C1236   1.411       .  A
C1235      C1240   1.409       .  A
C1235     Br1242   1.930       .  S
C1236      C1237   1.411       .  A
C1237      C1238   1.411       .  A
C1237     Br1244   1.930       .  S
C1238      C1239   1.411       .  A
C1238     Br1243   1.927       .  S
C1239      C1240   1.408       .  A
C1240     Br1241   1.920       .  S
C1245      C1246   1.412       .  A
C1245      C1250   1.409       .  A
C1245     Br1252   1.933       .  S
C1246      C1247   1.409       .  A
C1247      C1248   1.407       .  A
C1247     Br1254   1.939       .  S
C1248      C1249   1.421       .  A
C1248     Br1253   1.928       .  S
C1249      C1250   1.422       .  A
C1250     Br1251   1.938       .  S
C1255      C1256   1.411       .  A
C1255      C1260   1.410       .  A
C1255     Br1262   1.921       .  S
C1256      C1257   1.409       .  A
C1257      C1258   1.409       .  A
C1257     Br1264   1.924       .  S
C1258      C1259   1.409       .  A
C1258     Br1263   1.929       .  S
C1259      C1260   1.408       .  A
C1260     Br1261   1.930       .  S
C1265      C1266   1.410       .  A
C1265      C1270   1.409       .  A
C1265     Br1272   1.931       .  S
C1266      C1267   1.409       .  A
C1267      C1268   1.406       .  A
C1267     Br1274   1.933       .  S
C1268      C1269   1.413       .  A
C1268     Br1273   1.932       .  S
C1269      C1270   1.414       .  A
C1270     Br1271   1.933       .  S
C1275      C1276   1.415       .  A
C1275      C1280   1.411       .  A
C1275     Br1282   1.931       .  S
C1276      C1277   1.414       .  A
C1277      C1278   1.408       .  A
C1277     Br1284   1.932       .  S
C1278      C1279   1.409       .  A
C1278     Br1283   1.931       .  S
C1279      C1280   1.410       .  A
C1280     Br1281   1.931       .  S
C1285      C1286   1.409       .  A
C1285      C1290   1.403       .  A
C1285     Br1292   1.932       .  S
C1286      C1287   1.410       .  A
C1287      C1288   1.406       .  A
C1287     Br1294   1.928       .  S
C1288      C1289   1.406       .  A
C1288     Br1293   1.928       .  S
C1289      C1290   1.409       .  A
C1290     Br1291   1.932       .  S
C1295      C1296   1.416       .  A
C1295      C1300   1.412       .  A
C1295     Br1302   1.931       .  S
C1296      C1297   1.416       .  A
C1297      C1298   1.406       .  A
C1297     Br1304   1.931       .  S
C1298      C1299   1.408       .  A
C1298     Br1303   1.932       .  S
C1299      C1300   1.410       .  A
C1300     Br1301   1.930       .  S
C1305      C1306   1.412       .  A
C1305      C1310   1.404       .  A
C1305     Br1312   1.932       .  S
C1306      C1307   1.412       .  A
C1307      C1308   1.408       .  A
C1307     Br1314   1.930       .  S
C1308      C1309   1.408       .  A
C1308     Br1313   1.931       .  S
C1309      C1310   1.407       .  A
C1310     Br1311   1.930       .  S
C1315      C1316   1.412       .  A
C1315      C1320   1.411       .  A
C1315     Br1322   1.930       .  S
C1316      C1317   1.411       .  A
C1317      C1318   1.412       .  A
C1317     Br1324   1.938       .  S
C1318      C1319   1.422       .  A
C1318     Br1323   1.926       .  S
C1319      C1320   1.422       .  A
C1320     Br1321   1.931       .  S
C1325      C1326   1.409       .  A
C1325      C1330   1.408       .  A
C1325     Br1332   1.929       .  S
C1326      C1327   1.411       .  A
C1327      C1328   1.404       .  A
C1327     Br1334   1.927       .  S
C1328      C1329   1.407       .  A
C1328     Br1333   1.931       .  S
C1329      C1330   1.409       .  A
C1330     Br1331   1.929       .  S
C1335      C1336   1.407       .  A
C1335      C1340   1.399       .  A
C1335     Br1342   1.930       .  S
C1336      C1337   1.408       .  A
C1337      C1338   1.410       .  A
C1337     Br1344   1.927       .  S
C1338      C1339   1.411       .  A
C1338     Br1343   1.929       .  S
C1339      C1340   1.409       .  A
C1340     Br1341   1.931       .  S
C1345      C1346   1.410       .  A
C1345      C1350   1.409       .  A
C1345     Br1352   1.927       .  S
C1346      C1347   1.410       .  A
C1347      C1348   1.403       .  A
C1347     Br1354   1.924       .  S
C1348      C1349   1.407       .  A
C1348     Br1353   1.933       .  S
C1349      C1350   1.407       .  A
C1350     Br1351   1.926       .  S
C1355      C1356   1.419       .  A
C1355      C1360   1.408       .  A
C1355     Br1362   1.933       .  S
C1356      C1357   1.418       .  A
C1357      C1358   1.404       .  A
C1357     Br1364   1.924       .  S
C1358      C1359   1.404       .  A
C1358     Br1363   1.934       .  S
C1359      C1360   1.407       .  A
C1360     Br1361   1.932       .  S
C1365      C1366   1.410       .  A
C1365      C1370   1.405       .  A
C1365     Br1372   1.930       .  S
C1366      C1367   1.407       .  A
C1367      C1368   1.405       .  A
C1367     Br1374   1.929       .  S
C1368      C1369   1.409       .  A
C1368     Br1373   1.928       .  S
C1369      C1370   1.407       .  A
C1370     Br1371   1.931       .  S
C1375      C1376   1.410       .  A
C1375      C1380   1.406       .  A
C1375     Br1382   1.930       .  S
C1376      C1377   1.403       .  A
C1377      C1378   1.405       .  A
C1377     Br1384   1.926       .  S
C1378      C1379   1.411       .  A
C1378     Br1383   1.924       .  S
C1379      C1380   1.411       .  A
C1380     Br1381   1.928       .  S
C1385      C1386   1.409       .  A
C1385      C1390   1.412       .  A
C1385     Br1392   1.927       .  S
C1386      C1387   1.403       .  A
C1387      C1388   1.398       .  A
C1387     Br1394   1.927       .  S
C1388      C1389   1.414       .  A
C1388     Br1393   1.936       .  S
C1389      C1390   1.412       .  A
C1390     Br1391   1.927       .  S
C1395      C1396   1.409       .  A
C1395      C1400   1.406       .  A
C1395     Br1402   1.931       .  S
C1396      C1397   1.410       .  A
C1397      C1398   1.407       .  A
C1397     Br1404   1.931       .  S
C1398      C1399   1.410       .  A
C1398     Br1403   1.931       .  S
C1399      C1400   1.410       .  A
C1400     Br1401   1.929       .  S
C1405      C1406   1.408       .  A
C1405      C1410   1.410       .  A
C1405     Br1412   1.927       .  S
C1406      C1407   1.405       .  A
C1407      C1408   1.403       .  A
C1407     Br1414   1.924       .  S
C1408      C1409   1.410       .  A
C1408     Br1413   1.924       .  S
C1409      C1410   1.410       .  A
C1410     Br1411   1.927       .  S
C1415      C1416   1.408       .  A
C1415      C1420   1.412       .  A
C1415     Br1422   1.929       .  S
C1416      C1417   1.406       .  A
C1417      C1418   1.400       .  A
C1417     Br1424   1.928       .  S
C1418      C1419   1.419       .  A
C1418     Br1423   1.942       .  S
C1419      C1420   1.417       .  A
C1420     Br1421   1.932       .  S
C1425      C1426   1.410       .  A
C1425      C1430   1.407       .  A
C1425     Br1432   1.929       .  S
C1426      C1427   1.408       .  A
C1427      C1428   1.408       .  A
C1427     Br1434   1.930       .  S
C1428      C1429   1.413       .  A
C1428     Br1433   1.931       .  S
C1429      C1430   1.409       .  A
C1430     Br1431   1.930       .  S
C1435      C1436   1.409       .  A
C1435      C1440   1.408       .  A
C1435     Br1442   1.922       .  S
C1436      C1437   1.410       .  A
C1437      C1438   1.410       .  A
C1437     Br1444   1.925       .  S
C1438      C1439   1.410       .  A
C1438     Br1443   1.929       .  S
C1439      C1440   1.408       .  A
C1440     Br1441   1.930       .  S
C1445      C1446   1.411       .  A
C1445      C1450   1.408       .  A
C1445     Br1452   1.931       .  S
C1446      C1447   1.412       .  A
C1447      C1448   1.409       .  A
C1447     Br1454   1.930       .  S
C1448      C1449   1.408       .  A
C1448     Br1453   1.929       .  S
C1449      C1450   1.409       .  A
C1450     Br1451   1.931       .  S
C1455      C1456   1.410       .  A
C1455      C1460   1.407       .  A
C1455     Br1462   1.926       .  S
C1456      C1457   1.411       .  A
C1457      C1458   1.411       .  A
C1457     Br1464   1.930       .  S
C1458      C1459   1.415       .  A
C1458     Br1463   1.932       .  S
C1459      C1460   1.412       .  A
C1460     Br1461   1.934       .  S
C1465      C1466   1.414   1_455  A
C1465      C1470   1.410       .  A
C1465     Br1472   1.930       .  S
C1466      C1467   1.413   1_655  A
C1467      C1468   1.406       .  A
C1467     Br1474   1.924   1_455  S
C1468      C1469   1.406       .  A
C1468     Br1473   1.931       .  S
C1469      C1470   1.407       .  A
C1470     Br1471   1.928       .  S
C1475      C1476   1.409       .  A
C1475      C1480   1.405       .  A
C1475     Br1482   1.930       .  S
C1476      C1477   1.407       .  A
C1477      C1478   1.404       .  A
C1477     Br1484   1.929       .  S
C1478      C1479   1.409       .  A
C1478     Br1483   1.929       .  S
C1479      C1480   1.408       .  A
C1480     Br1481   1.930       .  S
C1485      C1486   1.411       .  A
C1485      C1490   1.407       .  A
C1485     Br1492   1.932       .  S
C1486      C1487   1.412       .  A
C1487      C1488   1.410       .  A
C1487     Br1494   1.936       .  S
C1488      C1489   1.421       .  A
C1488     Br1493   1.935       .  S
C1489      C1490   1.419       .  A
C1490     Br1491   1.930       .  S
C1495      C1496   1.411       .  A
C1495      C1500   1.406   1_655  A
C1495     Br1502   1.928       .  S
C1496      C1497   1.409   1_655  A
C1497      C1498   1.409       .  A
C1497     Br1504   1.928       .  S
C1498      C1499   1.410       .  A
C1498     Br1503   1.928       .  S
C1499      C1500   1.408       .  A
C1500     Br1501   1.930       .  S
C1505      C1506   1.416       .  A
C1505      C1510   1.411       .  A
C1505     Br1512   1.931       .  S
C1506      C1507   1.418       .  A
C1507      C1508   1.408       .  A
C1507     Br1514   1.936       .  S
C1508      C1509   1.415       .  A
C1508     Br1513   1.937       .  S
C1509      C1510   1.418       .  A
C1510     Br1511   1.935       .  S
C1515      C1516   1.407       .  A
C1515      C1520   1.409       .  A
C1515     Br1522   1.928       .  S
C1516      C1517   1.408       .  A
C1517      C1518   1.406       .  A
C1517     Br1524   1.931       .  S
C1518      C1519   1.412       .  A
C1518     Br1523   1.930       .  S
C1519      C1520   1.415       .  A
C1520     Br1521   1.932       .  S
