geometry optimzed in LAMMPS
_audit_creation_date              2020-11-30 
_audit_creation_method            'lammps2cif' 
_symmetry_space_group_name_H-M    'P1' 
_symmetry_Int_Tables_number       1 
_symmetry_cell_setting            triclinic 
loop_ 
_symmetry_equiv_pos_as_xyz 
  x,y,z 
_cell_length_a                    57.6962313 
_cell_length_b                    45.946947044400645 
_cell_length_c                    17.41773969275522 
_cell_angle_alpha                 90.3174211469606 
_cell_angle_beta                  92.39143039595335 
_cell_angle_gamma                 89.41510339509396 
loop_ 
_atom_site_label 
_atom_site_type_symbol 
_atom_site_fract_x 
_atom_site_fract_y 
_atom_site_fract_z 
_atom_site_charge 
C1          C  0.71672221  0.25090432  0.93179125     0.30500
C2          C  0.71605674  0.25195817  0.09025700     0.30500
C3          C  0.72477838  0.27929424  0.97161992    -0.05700
C4          C  0.69260605  0.24725631  0.96718956    -0.06500
C5          C  0.73110054  0.22718276  0.97414759    -0.06300
C6          C  0.72512974  0.27930135  0.05157584    -0.05700
C7          C  0.69254454  0.24672578  0.04753880    -0.06500
C8          C  0.73077153  0.22742071  0.05439940    -0.06400
C9          C  0.73377968  0.30569676  0.07657118    -0.31700
N10         N  0.73854582  0.32174855  0.01418295     0.14800
C11         C  0.73245748  0.30629031  0.94991243    -0.31700
H12         H  0.73385247  0.31407122  0.89185396     0.16700
C13         C  0.66991002  0.24340075  0.06775100    -0.31900
N14         N  0.65606143  0.24349883  0.00298262     0.13500
C15         C  0.66957631  0.24651716  0.94160266    -0.30700
C16         C  0.73851072  0.20012049  0.07804456    -0.31000
N17         N  0.74436094  0.18438108  0.01555943     0.14000
H18         H  0.73888247  0.19167668  0.13592216     0.16600
C19         C  0.73972849  0.20051330  0.95189299    -0.31000
H20         H  0.74124271  0.19273326  0.89349727     0.16600
H21         H  0.66287687  0.24923123  0.88313228     0.16600
H22         H  0.73618221  0.31281667  0.13565115     0.16700
H23         H  0.66379222  0.24261189  0.12542545     0.16600
C24         C  0.71608699  0.24918153  0.43121203     0.30500
C25         C  0.71582517  0.24843071  0.58985587     0.30500
C26         C  0.72923228  0.27358570  0.47339346    -0.05700
C27         C  0.69191104  0.25151742  0.46693757    -0.06500
C28         C  0.72562406  0.22146144  0.47047335    -0.06300
C29         C  0.72914343  0.27368273  0.55352502    -0.05700
C30         C  0.69195750  0.25212055  0.54745377    -0.06500
C31         C  0.72624510  0.22156766  0.55053591    -0.06400
C32         C  0.73778488  0.30050969  0.57676153    -0.31700
N33         N  0.74408943  0.31523519  0.51371856     0.14800
C34         C  0.73843253  0.29934760  0.45035110    -0.31700
H35         H  0.73994499  0.30663526  0.39179842     0.16700
C36         C  0.66923991  0.25515883  0.56785964    -0.30700
N37         N  0.65539534  0.25426609  0.50314089     0.13500
C38         C  0.66888697  0.25215898  0.44139140    -0.30700
C39         C  0.73589053  0.19543896  0.57445072    -0.31000
N40         N  0.74078315  0.17954279  0.51123644     0.14000
H41         H  0.73868190  0.18823531  0.63318453     0.16600
C42         C  0.73400522  0.19476045  0.44761649    -0.31000
H43         H  0.73510659  0.18685343  0.38926272     0.16600
H44         H  0.66220504  0.25068606  0.38256979     0.16600
H45         H  0.73853899  0.30938315  0.63447059     0.16700
H46         H  0.66310187  0.25733511  0.62537829     0.16600
C47         C  0.80798832  0.00061672  0.09039810     0.30500
C48         C  0.80610508  0.00000419  0.93153709     0.30500
C49         C  0.79843051  0.02820330  0.05041806    -0.05700
C50         C  0.83139646  0.99547699  0.05196305    -0.06500
C51         C  0.79359647  0.47632249  0.05083833    -0.06300
C52         C  0.79816291  0.02844692  0.97036836    -0.05700
C53         C  0.83052567  0.99614258  0.97135563    -0.06500
C54         C  0.79257566  0.47633482  0.97073237    -0.06400
C55         C  0.79086153  0.05597107  0.94794189    -0.31700
N56         N  0.78607610  0.07171670  0.01172785     0.14800
C57         C  0.79044832  0.05494256  0.07447532    -0.31700
H58         H  0.78823264  0.06186395  0.13327897     0.16700
C59         C  0.85337869  0.49395444  0.94873838    -0.30700
N60         N  0.86758795  0.49061674  0.01196905     0.13500
C61         C  0.85460851  0.49095044  0.07522602    -0.30700
C62         C  0.78261328  0.45057126  0.94638638    -0.31000
N63         N  0.77753518  0.43495492  0.00914864     0.14000
H64         H  0.78043277  0.44300304  0.88755323     0.16600
C65         C  0.78499069  0.44978120  0.07280144    -0.31000
H66         H  0.78497738  0.44117245  0.13046537     0.16600
H67         H  0.86146148  0.48845398  0.13356679     0.16600
H68         H  0.78911786  0.06403666  0.88985107     0.16700
H69         H  0.85936310  0.49517913  0.89083909     0.16600
C70         C  0.80605987  0.99712018  0.59024649     0.30500
C71         C  0.80547365  0.99763101  0.43145894     0.30500
C72         C  0.79337950  0.02314671  0.55043359    -0.05700
C73         C  0.82992238  0.99905049  0.55392380    -0.06500
C74         C  0.79486637  0.47111516  0.54851044    -0.06300
C75         C  0.79308967  0.02310160  0.47023782    -0.05700
C76         C  0.82966983  0.99804631  0.47352704    -0.06500
C77         C  0.79515157  0.47080149  0.46846176    -0.06400
C78         C  0.78316006  0.04889135  0.44526804    -0.31700
N79         N  0.77745328  0.06461235  0.50776184     0.14800
C80         C  0.78425309  0.04975448  0.57196203    -0.31700
H81         H  0.78339483  0.05844274  0.62964318     0.16700
C82         C  0.85251976  0.49563280  0.45305225    -0.30700
N83         N  0.86643298  0.49749305  0.51739441     0.13500
C84         C  0.85302896  0.49976171  0.57927733    -0.30700
C85         C  0.78651443  0.44424610  0.44440820    -0.31000
N86         N  0.78001537  0.42948789  0.50711689     0.14000
H87         H  0.78532859  0.43599463  0.38609922     0.16600
C88         C  0.78524477  0.44546623  0.57091643    -0.31000
H89         H  0.78290637  0.43846520  0.62926637     0.16600
H90         H  0.85958104  0.50124607  0.63815582     0.16600
H91         H  0.78102879  0.05617744  0.38639264     0.16700
H92         H  0.85871979  0.49208391  0.39592716     0.16600
O93         O  0.47482660  0.27236235  0.96419717    -0.72400
O94         O  0.54440099  0.27179339  0.95837635    -0.73400
O95         O  0.50792835  0.24184845  0.88033571    -0.62000
O96         O  0.51068122  0.30306733  0.04308229    -0.70500
O97         O  0.51224918  0.26732260  0.12878136    -0.70000
O98         O  0.51009668  0.20595890  0.96560011    -0.61300
O99         O  0.54602478  0.23670874  0.04477795    -0.73800
O100        O  0.47649026  0.23680455  0.04954320    -0.72500
Cu101      Cu  0.50944295  0.27345816  0.95835430     1.04600
Cu102      Cu  0.51132788  0.23554017  0.05046394     1.04300
C103        C  0.46461471  0.25484267  0.00793358     0.93800
C104        C  0.55633247  0.25391378  0.00017710     0.92900
C105        C  0.50857404  0.21475837  0.89635326     0.85000
C106        C  0.51129136  0.29439036  0.11244226     0.91300
O107        O  0.54519426  0.27768077  0.54859128    -0.72400
O108        O  0.47549336  0.27953072  0.54653090    -0.73400
O109        O  0.51090479  0.24805998  0.62792410    -0.62000
O110        O  0.50981202  0.30958266  0.46718255    -0.70500
O111        O  0.50844730  0.27378517  0.38065589    -0.70000
O112        O  0.50993270  0.21233524  0.54116559    -0.61300
O113        O  0.47449040  0.24404509  0.45993000    -0.73800
O114        O  0.54418300  0.24250093  0.46121832    -0.72500
Cu115      Cu  0.51041488  0.27987109  0.55086193     1.04600
Cu116      Cu  0.50924931  0.24198705  0.45748352     1.04300
C117        C  0.55576924  0.26009160  0.50472409     0.93800
C118        C  0.46392816  0.26188773  0.50313686     0.92900
C119        C  0.51062029  0.22100608  0.61077649     0.85000
C120        C  0.50864595  0.30086985  0.39762273     0.91300
O121        O  0.97592795  0.45715741  0.95206310    -0.72400
O122        O  0.04574623  0.45499728  0.93998040    -0.73400
O123        O  0.01247253  0.42616059  0.03082384    -0.62000
O124        O  0.00886357  0.48603155  0.86347939    -0.70500
O125        O  0.01085660  0.02187042  0.94908917    -0.70000
O126        O  0.01556384  0.96285371  0.11355073    -0.61300
O127        O  0.04755974  0.99136711  0.02349400    -0.73800
O128        O  0.97861201  0.99266408  0.03763836    -0.72500
Cu129      Cu  0.01068193  0.45474480  0.94338220     1.04600
Cu130      Cu  0.01326577  0.99326808  0.03405580     1.04300
C131        C  0.96635197  0.47558501  0.99622055     0.93800
C132        C  0.05777830  0.47357768  0.97878384     0.92900
C133        C  0.01430675  0.43601532  0.09940388     0.85000
C134        C  0.00951786  0.51322039  0.87961174     0.91300
O135        O  0.01029692  0.03754799  0.53030591    -0.72400
O136        O  0.00720032  0.97548911  0.36843008    -0.73400
O137        O  0.97455850  0.00498548  0.45822698    -0.62000
O138        O  0.04336398  0.00805019  0.44031920    -0.70500
O139        O  0.04824604  0.47338977  0.52581423    -0.70000
O140        O  0.97868526  0.47037038  0.54486727    -0.61300
O141        O  0.01179588  0.44040941  0.45468125    -0.73800
O142        O  0.01520262  0.50212030  0.61505809    -0.72500
Cu143      Cu  0.00872561  0.00761164  0.44597193     1.04600
Cu144      Cu  0.01365677  0.47034853  0.53819257     1.04300
C145        C  0.01293728  0.52910439  0.59906238     0.93800
C146        C  0.00904785  0.44868527  0.38526093     0.92900
C147        C  0.96565926  0.48780693  0.50515495     0.85000
C148        C  0.05695585  0.49174844  0.48032856     0.91300
C149        C  0.30476369  0.25480922  0.91882668     0.30500
C150        C  0.30481022  0.25556112  0.07743507     0.30500
C151        C  0.29170127  0.23014362  0.95647519    -0.05700
C152        C  0.32888144  0.25272408  0.96179786    -0.06500
C153        C  0.29493985  0.28242702  0.95622241    -0.06300
C154        C  0.29179236  0.23017103  0.03675954    -0.05700
C155        C  0.32870237  0.25202838  0.04219322    -0.06500
C156        C  0.29424399  0.28226992  0.03602200    -0.06400
C157        C  0.28499227  0.20264067  0.05755844    -0.31700
N158        N  0.27975559  0.18705555  0.99303181     0.14800
C159        C  0.28385332  0.20349099  0.93096906    -0.31700
H160        H  0.28215744  0.19615124  0.87183603     0.16700
C161        C  0.35136863  0.24953639  0.06960634    -0.30700
N162        N  0.36528618  0.25014107  0.00896100     0.13500
C163        C  0.35194838  0.25283444  0.94343007    -0.30700
C164        C  0.28466987  0.30839207  0.05833176    -0.31000
N165        N  0.28027178  0.32462941  0.99461255     0.14000
H166        H  0.28181234  0.31549116  0.11659222     0.16600
C167        C  0.28656736  0.30919004  0.93208765    -0.31000
H168        H  0.28539399  0.31709380  0.87371577     0.16600
H169        H  0.35881818  0.25556998  0.88708671     0.16600
H170        H  0.28486475  0.19385547  0.11501314     0.16700
H171        H  0.35739783  0.24845890  0.12909800     0.16600
C172        C  0.30447738  0.25342230  0.41837035     0.30500
C173        C  0.30572562  0.25352111  0.57696238     0.30500
C174        C  0.29914363  0.22425051  0.45666240    -0.05700
C175        C  0.32812285  0.26081498  0.45951856    -0.06500
C176        C  0.28805449  0.27500454  0.45644275    -0.06300
C177        C  0.29917353  0.22471904  0.53660144    -0.05700
C178        C  0.32847900  0.26195670  0.53987898    -0.06500
C179        C  0.28863718  0.27543146  0.53680818    -0.06400
C180        C  0.29213886  0.19776998  0.56014603    -0.31700
N181        N  0.28785923  0.18095547  0.49703140     0.14800
C182        C  0.29266792  0.19654639  0.43366585    -0.31700
H183        H  0.29064448  0.18861426  0.37523438     0.16700
C184        C  0.35100651  0.26753743  0.56500408    -0.30700
N185        N  0.36444458  0.26816740  0.50302016     0.13500
C186        C  0.35088519  0.26327431  0.43899688    -0.30700
C187        C  0.27946666  0.30226683  0.55699521    -0.31000
N188        N  0.27169398  0.31631177  0.49259618     0.14000
H189        H  0.27991545  0.31195016  0.61379857     0.16600
C190        C  0.27753974  0.30036850  0.43085284    -0.31000
H191        H  0.27610447  0.30785978  0.37199341     0.16600
H192        H  0.35751745  0.25994331  0.38237549     0.16600
H193        H  0.28990766  0.19103655  0.61879201     0.16700
H194        H  0.35749228  0.26889183  0.62400523     0.16600
C195        C  0.21513946  0.50632347  0.06773515     0.30500
C196        C  0.21547116  0.50624134  0.90937551     0.30500
C197        C  0.23053044  0.48259749  0.03125549    -0.05700
C198        C  0.19171685  0.50015798  0.02472031    -0.06500
C199        C  0.22363055  0.03391371  0.03036206    -0.06300
C200        C  0.23071264  0.48251618  0.95021579    -0.05700
C201        C  0.19191996  0.50014147  0.94444727    -0.06500
C202        C  0.22381356  0.03374425  0.95084415    -0.06400
C203        C  0.23699857  0.45460032  0.92865969    -0.31700
N204        N  0.24137008  0.43851096  0.99239581     0.14800
C205        C  0.23673414  0.45479271  0.05472224    -0.31700
H206        H  0.23666044  0.44637429  0.11257045     0.16700
C207        C  0.16993384  0.49285033  0.91724361    -0.30700
N208        N  0.15620539  0.98896361  0.97920926     0.13500
C209        C  0.16954682  0.49291111  0.04393878    -0.30700
C210        C  0.23389297  0.05924782  0.92880432    -0.31000
N211        N  0.23943505  0.07496342  0.99291353     0.14000
H212        H  0.23701862  0.06590647  0.87062517     0.16600
C213        C  0.23355122  0.05961341  0.05540622    -0.31000
H214        H  0.23654222  0.06649533  0.11446089     0.16600
H215        H  0.16320140  0.99062356  0.10227060     0.16600
H216        H  0.23696109  0.44588139  0.87081663     0.16700
H217        H  0.16407534  0.49068245  0.85774461     0.16600
C218        C  0.21724306  0.50466447  0.56802815     0.30500
C219        C  0.21678597  0.50410188  0.40953958     0.30500
C220        C  0.22550988  0.47610823  0.52990524    -0.05700
C221        C  0.19305228  0.50839817  0.52649402    -0.06500
C222        C  0.23118936  0.02804153  0.53061919    -0.06300
C223        C  0.22522045  0.47590661  0.44953637    -0.05700
C224        C  0.19279366  0.50795263  0.44569330    -0.06500
C225        C  0.23102366  0.02777962  0.45107566    -0.06400
C226        C  0.23214501  0.44853209  0.42672802    -0.31700
N227        N  0.23738971  0.43257901  0.49041507     0.14800
C228        C  0.23273667  0.44872841  0.55355194    -0.31700
H229        H  0.23441972  0.44098759  0.61201062     0.16700
C230        C  0.17031764  0.50124056  0.42107674    -0.30700
N231        N  0.15687154  0.99853233  0.48265806     0.13500
C232        C  0.17067174  0.50251278  0.54711860    -0.30700
C233        C  0.24239687  0.05231723  0.42854969    -0.31000
N234        N  0.24975929  0.06712931  0.49241027     0.14000
H235        H  0.24412930  0.05965836  0.37010933     0.16600
C236        C  0.24266617  0.05280494  0.55509951    -0.31000
H237        H  0.24483341  0.06050735  0.61374021     0.16600
H238        H  0.16483330  0.50043137  0.60484077     0.16600
H239        H  0.23336682  0.44070780  0.36834198     0.16700
H240        H  0.16422044  0.49689940  0.36255714     0.16600
C241        C  0.23560376  0.49711609  0.78488349    -0.05300
C242        C  0.21613212  0.50858295  0.82102355     0.00700
C243        C  0.19982766  0.02488503  0.77418867    -0.07900
C244        C  0.20079371  0.02229571  0.69371292    -0.05300
C245        C  0.21857729  0.50680978  0.65676737     0.00600
C246        C  0.23791977  0.49760206  0.70475751    -0.07800
C247        C  0.26208216  0.48992994  0.67888905     0.62500
H248        H  0.25031403  0.48951846  0.81997186     0.13200
H249        H  0.18838128  0.03478811  0.65893434     0.13300
C250        C  0.18220381  0.04710493  0.80176756     0.62800
F251        F  0.27801798  0.50753879  0.71777059    -0.22400
F252        F  0.26515139  0.49375560  0.60167478    -0.19700
F253        F  0.26712152  0.46134326  0.69809996    -0.19400
F254        F  0.18353604  0.05247575  0.87956452    -0.19400
F255        F  0.16005937  0.03782823  0.78132082    -0.19800
F256        F  0.18577081  0.07340427  0.76591564    -0.22400
C257        C  0.20027303  0.02124862  0.28124436    -0.05300
C258        C  0.21797411  0.50581395  0.32128702     0.00700
C259        C  0.23754979  0.49717052  0.27854493    -0.07900
C260        C  0.23539565  0.49725731  0.19767984    -0.05300
C261        C  0.21574436  0.50838238  0.15647659     0.00600
C262        C  0.19942962  0.02430035  0.20082044    -0.07800
C263        C  0.18162121  0.04635135  0.17005469     0.62500
H264        H  0.18757132  0.03320652  0.31308694     0.13200
H265        H  0.25028776  0.49024756  0.16645385     0.13300
C266        C  0.26173317  0.48940882  0.31133511     0.62800
F267        F  0.18529727  0.07267978  0.20735756    -0.22400
F268        F  0.15965805  0.53668693  0.18467243    -0.19700
F269        F  0.18247891  0.05164074  0.09255800    -0.19400
F270        F  0.26686173  0.46076493  0.29329473    -0.19400
F271        F  0.26469106  0.99293702  0.38993065    -0.19800
F272        F  0.27775549  0.50699907  0.27772833    -0.22400
C273        C  0.24590225  0.11942714  0.51279739    -0.05300
C274        C  0.25977706  0.09560024  0.49317075     0.00700
C275        C  0.28313886  0.09989149  0.47505166    -0.07900
C276        C  0.29197097  0.12839501  0.47696877    -0.05300
C277        C  0.27808364  0.15228575  0.49688015     0.00600
C278        C  0.25462094  0.14789579  0.51452105    -0.07800
C279        C  0.23873060  0.17324102  0.53314089     0.62500
H280        H  0.22807665  0.11538313  0.52634170     0.13200
H281        H  0.30978702  0.13235618  0.46320013     0.13300
C282        C  0.29855536  0.07425977  0.45528537     0.62800
F283        F  0.21597836  0.16451572  0.53906145    -0.22400
F284        F  0.23919885  0.19382106  0.47569140    -0.19700
F285        F  0.24584757  0.18578505  0.60231597    -0.19400
F286        F  0.29040069  0.06143858  0.38758991    -0.19400
F287        F  0.29854599  0.05395613  0.51364764    -0.19800
F288        F  0.32123067  0.08264995  0.44586826    -0.22400
C289        C  0.27826697  0.36850411  0.50118437    -0.05300
C290        C  0.26279252  0.34551413  0.48998208     0.00700
C291        C  0.23886052  0.35126049  0.47695029    -0.07900
C292        C  0.23094222  0.38032431  0.47787707    -0.05300
C293        C  0.24637923  0.40335251  0.49048701     0.00600
C294        C  0.27046364  0.39756566  0.50055765    -0.07800
C295        C  0.28777353  0.42200731  0.50967706     0.62500
H296        H  0.29653057  0.36332359  0.51014718     0.13200
H297        H  0.21267170  0.38542921  0.46881495     0.13300
C298        C  0.22197659  0.32658864  0.46294499     0.62800
F299        F  0.31042912  0.41170988  0.51371786    -0.22400
F300        F  0.28392887  0.43726104  0.57629444    -0.19700
F301        F  0.28537232  0.44062937  0.44780655    -0.19400
F302        F  0.22328060  0.30773398  0.52462341    -0.19400
F303        F  0.22745140  0.31157792  0.39699377    -0.19800
F304        F  0.19933036  0.33663682  0.45382819    -0.22400
C305        C  0.24660641  0.15572841  0.00702708    -0.05300
C306        C  0.27006097  0.15850785  0.99143566     0.00700
C307        C  0.28362159  0.13355753  0.97587917    -0.07900
C308        C  0.27306571  0.10606700  0.97742558    -0.05300
C309        C  0.24958719  0.10330955  0.99386534     0.00600
C310        C  0.23599385  0.12839348  0.00756561    -0.07800
C311        C  0.21029969  0.12612660  0.02101642     0.62500
H312        H  0.23672099  0.17532372  0.01849136     0.13200
H313        H  0.28294806  0.08648432  0.96587047     0.13300
C314        C  0.30906844  0.13624800  0.95883530     0.62800
F315        F  0.19968797  0.15325422  0.02356168    -0.22400
F316        F  0.20712767  0.11236718  0.09006456    -0.19700
F317        F  0.19953148  0.11032792  0.96210953    -0.19400
F318        F  0.32070513  0.15030951  0.01912998    -0.19400
F319        F  0.31134635  0.15207146  0.89234584    -0.19800
F320        F  0.31947672  0.10929712  0.94874513    -0.22400
C321        C  0.24679246  0.35720982  0.00416460    -0.05300
C322        C  0.27062275  0.35348151  0.99377686     0.00700
C323        C  0.28479977  0.37796463  0.98426344    -0.07900
C324        C  0.27445674  0.40575896  0.98353437    -0.05300
C325        C  0.25066999  0.40951190  0.99363977     0.00600
C326        C  0.23650257  0.38512516  0.00446593    -0.07800
C327        C  0.21074413  0.38886931  0.01588074     0.62500
H328        H  0.23643556  0.33804093  0.01223431     0.13200
H329        H  0.28481933  0.42495528  0.97590349     0.13300
C330        C  0.31079281  0.37457113  0.97738133     0.62800
F331        F  0.19963025  0.36234679  0.01806729    -0.22400
F332        F  0.20066378  0.40491346  0.95614494    -0.19700
F333        F  0.20734820  0.40328325  0.08444028    -0.19400
F334        F  0.31552042  0.35857483  0.91237903    -0.19400
F335        F  0.32015392  0.36039107  0.04143925    -0.19800
F336        F  0.32157756  0.40121705  0.97214799    -0.22400
C337        C  0.28579451  0.26144831  0.70242826    -0.05300
C338        C  0.30562577  0.25127080  0.66558778     0.00700
C339        C  0.32241329  0.23566415  0.71261367    -0.07900
C340        C  0.32127864  0.23778002  0.79318635    -0.05300
C341        C  0.30346171  0.25282393  0.83007515     0.00600
C342        C  0.28367195  0.26090539  0.78260251    -0.07800
C343        C  0.25919423  0.26687316  0.80911964     0.62500
H344        H  0.27058597  0.26773118  0.66799657     0.13200
H345        H  0.33373766  0.22529024  0.82758157     0.13300
C346        C  0.34104067  0.21470074  0.68507953     0.62800
F347        F  0.24390885  0.24876651  0.76894493    -0.22400
F348        F  0.25294486  0.29537832  0.79261967    -0.19700
F349        F  0.25626600  0.26189266  0.88591913    -0.19400
F350        F  0.36268061  0.22464572  0.70957624    -0.19400
F351        F  0.34098200  0.21049162  0.60684214    -0.19800
F352        F  0.33780069  0.18771252  0.71765002    -0.22400
C353        C  0.28565777  0.24469945  0.20222044    -0.05300
C354        C  0.30411624  0.25798723  0.16572840     0.00700
C355        C  0.31872690  0.27633506  0.21284493    -0.07900
C356        C  0.31811310  0.27365153  0.29316146    -0.05300
C357        C  0.30260375  0.25532786  0.32976762     0.00600
C358        C  0.28376623  0.24443909  0.28255236    -0.07800
C359        C  0.26026782  0.23483465  0.30964402     0.62500
H360        H  0.27125829  0.23629979  0.16748000     0.13200
H361        H  0.32886927  0.28818646  0.32764083     0.13300
C362        C  0.33417828  0.30069683  0.18580271     0.62800
F363        F  0.24309775  0.25165838  0.27334077    -0.22400
F364        F  0.25749898  0.23783680  0.38730282    -0.19700
F365        F  0.25665331  0.20605663  0.28916646    -0.19400
F366        F  0.33339853  0.30509142  0.10772718    -0.19400
F367        F  0.35694189  0.29497191  0.20956014    -0.19800
F368        F  0.32733384  0.32658976  0.21944189    -0.22400
C369        C  0.09650367  0.47139085  0.51008108    -0.05300
C370        C  0.08272354  0.99334398  0.47528217     0.00700
C371        C  0.09416127  0.01688898  0.43984063    -0.07900
C372        C  0.11860998  0.01730890  0.44279334    -0.05300
C373        C  0.13200278  0.99550734  0.47942915     0.00600
C374        C  0.12093828  0.47199129  0.51265048    -0.07800
C375        C  0.13470522  0.44691015  0.54882534     0.62500
H376        H  0.08792865  0.45335684  0.53626457     0.13200
H377        H  0.12774091  0.03512070  0.41765950     0.13300
C378        C  0.08111017  0.04191178  0.40001933     0.62800
F379        F  0.12072744  0.42333339  0.56245808    -0.22400
F380        F  0.14486018  0.45556573  0.61830263    -0.19700
F381        F  0.15176352  0.43775758  0.50040089    -0.19400
F382        F  0.06705593  0.05591885  0.45130035    -0.19400
F383        F  0.06781764  0.03145411  0.33812308    -0.19800
F384        F  0.09596031  0.06245884  0.37215468    -0.22400
C385        C  0.09224468  0.00385482  0.97885179    -0.05300
C386        C  0.08305546  0.97575877  0.97157924     0.00700
C387        C  0.09865835  0.45197427  0.96102308    -0.07900
C388        C  0.12280874  0.45707693  0.96397081    -0.05300
C389        C  0.13150901  0.98488956  0.97491360     0.00600
C390        C  0.11614562  0.00888324  0.97963589    -0.07800
C391        C  0.12497642  0.03975016  0.98618567     0.62500
H392        H  0.08041340  0.02212148  0.98446480     0.13200
H393        H  0.13504271  0.43924345  0.95843124     0.13300
C394        C  0.08984873  0.42133218  0.94717738     0.62800
F395        F  0.10710970  0.06010200  0.98272065    -0.22400
F396        F  0.13941108  0.04539592  0.92699077    -0.19700
F397        F  0.13703494  0.04326557  0.05536238    -0.19400
F398        F  0.07761688  0.42009597  0.87727447    -0.19400
F399        F  0.07552964  0.41350494  0.00495114    -0.19800
F400        F  0.10780578  0.40114154  0.94551088    -0.22400
C401        C  0.03097471  0.54101426  0.78807768    -0.05300
C402        C  0.00944756  0.53395560  0.81666501     0.00700
C403        C  0.98857503  0.04076244  0.77431504    -0.07900
C404        C  0.99051312  0.04975228  0.69789464    -0.05300
C405        C  0.01221212  0.54920523  0.66401275     0.00600
C406        C  0.03247820  0.54993229  0.71186597    -0.07800
C407        C  0.05609711  0.55342138  0.67913599     0.62500
H408        H  0.04674376  0.53654832  0.82228601     0.13200
H409        H  0.97507148  0.05113993  0.66041070     0.13300
C410        C  0.96495958  0.03659002  0.80748232     0.62800
F411        F  0.06965869  0.57098277  0.72715967    -0.22400
F412        F  0.05429957  0.56621665  0.60736118    -0.19700
F413        F  0.06674711  0.52645988  0.67280722    -0.19400
F414        F  0.96386658  0.05194989  0.87577679    -0.19400
F415        F  0.96139990  0.00741089  0.82144882    -0.19800
F416        F  0.94724081  0.04649694  0.75797186    -0.22400
C417        C  0.03066529  0.91991655  0.29460595    -0.05300
C418        C  0.00896632  0.42765900  0.32215157     0.00700
C419        C  0.98864842  0.42354274  0.27556181    -0.07900
C420        C  0.99103434  0.41707467  0.19751808    -0.05300
C421        C  0.01300680  0.41721806  0.16626490     0.00600
C422        C  0.03298776  0.91431630  0.21608695    -0.07800
C423        C  0.05680215  0.91083810  0.18405030     0.62500
H424        H  0.04603586  0.92267653  0.33179509     0.13200
H425        H  0.97588216  0.41781654  0.15873933     0.13300
C426        C  0.96481655  0.42840408  0.30710865     0.62800
F427        F  0.07315459  0.90298149  0.24080547    -0.22400
F428        F  0.06346906  0.93672517  0.15180685    -0.19700
F429        F  0.05624131  0.88922789  0.12846022    -0.19400
F430        F  0.96245057  0.41053974  0.36975307    -0.19400
F431        F  0.94730043  0.42194729  0.25314991    -0.19800
F432        F  0.96207021  0.45709629  0.32964172    -0.22400
C433        C  0.42707025  0.28964486  0.51373507    -0.05300
C434        C  0.43814484  0.26256846  0.50278538     0.00700
C435        C  0.42441917  0.23712548  0.49368187    -0.07900
C436        C  0.40015205  0.23991728  0.49538117    -0.05300
C437        C  0.38930656  0.26693188  0.50541363     0.00600
C438        C  0.40274881  0.29225517  0.51431366    -0.07800
C439        C  0.39119946  0.32181078  0.52239499     0.62500
H440        H  0.43762143  0.30891459  0.52055536     0.13200
H441        H  0.38920556  0.22101777  0.48800516     0.13300
C442        C  0.43504322  0.20704798  0.48327164     0.62800
F443        F  0.40727000  0.34395412  0.52904339    -0.22400
F444        F  0.37816365  0.32231949  0.58720611    -0.19700
F445        F  0.37681311  0.32720279  0.45842236    -0.19400
F446        F  0.45210928  0.20199550  0.53980216    -0.19400
F447        F  0.44449961  0.20499539  0.41177398    -0.19800
F448        F  0.41872169  0.18532023  0.48815095    -0.22400
C449        C  0.42803332  0.22827897  0.02476624    -0.05300
C450        C  0.43887794  0.25485402  0.00985508     0.00700
C451        C  0.42496773  0.28035711  0.99828995    -0.07900
C452        C  0.40070926  0.27794640  0.99990126    -0.05300
C453        C  0.39010906  0.25133294  0.01321298     0.00600
C454        C  0.40376958  0.22610824  0.02641911    -0.07800
C455        C  0.39253629  0.19703292  0.04040944     0.62500
H456        H  0.43871626  0.20899351  0.03383126     0.13200
H457        H  0.38959994  0.29678516  0.98976693     0.13300
C458        C  0.43535528  0.31008809  0.98503929     0.62800
F459        F  0.40878239  0.17473304  0.04775698    -0.22400
F460        F  0.37731160  0.19034433  0.97956085    -0.19700
F461        F  0.38049717  0.19838813  0.10732181    -0.19400
F462        F  0.41884828  0.33211762  0.98771241    -0.19400
F463        F  0.44482995  0.31076459  0.91346728    -0.19800
F464        F  0.45234808  0.31592116  0.04116004    -0.22400
C465        C  0.48950679  0.19493240  0.70598136    -0.05300
C466        C  0.51089535  0.20038037  0.67411970     0.00700
C467        C  0.53164876  0.19584625  0.71844768    -0.07900
C468        C  0.53011371  0.19192415  0.79783450    -0.05300
C469        C  0.50859931  0.19439941  0.83185238     0.00600
C470        C  0.48803706  0.19206271  0.78554652    -0.07800
C471        C  0.46422597  0.19109669  0.81876216     0.62500
H472        H  0.47367476  0.19755275  0.67094452     0.13200
H473        H  0.54575521  0.19325659  0.83439976     0.13300
C474        C  0.55506785  0.20165485  0.68573494     0.62800
F475        F  0.45222144  0.21659066  0.80128499    -0.22400
F476        F  0.46546857  0.18770684  0.89771064    -0.19700
F477        F  0.45208856  0.16786160  0.78695185    -0.19400
F478        F  0.55852227  0.23135744  0.68229781    -0.19400
F479        F  0.55601825  0.18991935  0.61261087    -0.19800
F480        F  0.57283035  0.18933333  0.73092997    -0.22400
C481        C  0.52821052  0.32659075  0.29913301    -0.05300
C482        C  0.50718998  0.32135061  0.33385989     0.00700
C483        C  0.48643881  0.32118423  0.28821135    -0.07900
C484        C  0.48794699  0.31706156  0.20905102    -0.05300
C485        C  0.50962513  0.31494919  0.17616517     0.00600
C486        C  0.52973887  0.32317775  0.21931898    -0.07800
C487        C  0.55282410  0.32544746  0.18186012     0.62500
H488        H  0.54393824  0.32802140  0.33506997     0.13200
H489        H  0.47241415  0.31165296  0.17508563     0.13300
C490        C  0.46284526  0.32012961  0.32280084     0.62800
F491        F  0.56004129  0.29828353  0.15731763    -0.22400
F492        F  0.56974746  0.33662443  0.23208592    -0.19700
F493        F  0.55040806  0.34384966  0.11941037    -0.19400
F494        F  0.46411672  0.32692087  0.40035212    -0.19400
F495        F  0.45367972  0.29258617  0.31316173    -0.19800
F496        F  0.44814489  0.34010658  0.28621647    -0.22400
C497        C  0.92859592  0.01540718  0.49235816    -0.05300
C498        C  0.94002559  0.48931141  0.51410510     0.00700
C499        C  0.92655990  0.46619518  0.54253898    -0.07900
C500        C  0.90227442  0.46994771  0.54438834    -0.05300
C501        C  0.89127118  0.49565664  0.51906799     0.00600
C502        C  0.90444899  0.01896393  0.49451757    -0.07800
C503        C  0.89299945  0.04763621  0.47106724     0.62500
H504        H  0.93883456  0.03327876  0.47263212     0.13200
H505        H  0.89146986  0.45269513  0.56457221     0.13300
C506        C  0.93736208  0.43759065  0.56977826     0.62800
F507        F  0.90913282  0.06840385  0.45351024    -0.22400
F508        F  0.88019566  0.05827023  0.53068286    -0.19700
F509        F  0.87847198  0.04363163  0.40688981    -0.19400
F510        F  0.95117176  0.44229534  0.63538689    -0.19400
F511        F  0.95058954  0.42565308  0.51304473    -0.19800
F512        F  0.92073523  0.41740677  0.58716728    -0.22400
C513        C  0.82015559  0.47951445  0.80597472    -0.05300
C514        C  0.80405605  0.99768489  0.84287871     0.00700
C515        C  0.78476672  0.00783238  0.79600509    -0.07900
C516        C  0.78667987  0.00774358  0.71558422    -0.05300
C517        C  0.80550804  0.99479263  0.67871030     0.00600
C518        C  0.82050856  0.47642276  0.72550794    -0.07800
C519        C  0.83562699  0.45133791  0.69794903     0.62500
H520        H  0.83140818  0.46539692  0.84053869     0.13200
H521        H  0.77200862  0.01572358  0.68101188     0.13300
C522        C  0.76086792  0.01616878  0.82373545     0.62800
F523        F  0.82905529  0.42601954  0.73345654    -0.22400
F524        F  0.85850961  0.95677661  0.71884373    -0.19700
F525        F  0.83397774  0.44611411  0.62007653    -0.19400
F526        F  0.75630422  0.04517647  0.80790255    -0.19400
F527        F  0.75831330  0.51146334  0.90083574    -0.19800
F528        F  0.74431813  0.99963975  0.78420501    -0.22400
C529        C  0.82222017  0.01529149  0.30800448    -0.05300
C530        C  0.80443387  0.00002669  0.34289274     0.00700
C531        C  0.78492022  0.49289811  0.29402882    -0.07900
C532        C  0.78751501  0.49256259  0.21395958    -0.05300
C533        C  0.80737018  0.00262317  0.17905306     0.00600
C534        C  0.82335119  0.01840805  0.22780230    -0.07800
C535        C  0.84057314  0.04093404  0.20249417     0.62500
H536        H  0.83450965  0.02730276  0.34396774     0.13200
H537        H  0.77258875  0.48653262  0.17799598     0.13300
C538        C  0.76027954  0.48803979  0.31930378     0.62800
F539        F  0.83623874  0.06697602  0.23985018    -0.22400
F540        F  0.83938876  0.04672661  0.12501952    -0.19700
F541        F  0.86283262  0.03180403  0.22361398    -0.19400
F542        F  0.75714825  0.49364421  0.39591127    -0.19400
F543        F  0.75383916  0.45970216  0.30292726    -0.19800
F544        F  0.74531220  0.50652949  0.27831694    -0.22400
C545        C  0.90133046  0.45888079  0.99687701    -0.05300
C546        C  0.89229697  0.48674517  0.01056965     0.00700
C547        C  0.90713143  0.01039715  0.01702439    -0.07900
C548        C  0.93108969  0.00542472  0.01286876    -0.05300
C549        C  0.94064207  0.47794186  0.99915733     0.00600
C550        C  0.92534919  0.45391786  0.99029625    -0.07800
C551        C  0.93406264  0.42321453  0.97490239     0.62500
H552        H  0.88919781  0.44112866  0.99027804     0.13200
H553        H  0.94280865  0.02365768  0.01808466     0.13300
C554        C  0.89781814  0.04108529  0.02657122     0.62800
F555        F  0.91639040  0.40306728  0.97595764    -0.22400
F556        F  0.95070555  0.41533423  0.03051859    -0.19700
F557        F  0.94348370  0.42181531  0.90325634    -0.19400
F558        F  0.88627486  0.04317233  0.09415940    -0.19400
F559        F  0.88266772  0.04786673  0.96554828    -0.19800
F560        F  0.91536114  0.06145466  0.02916605    -0.22400
C561        C  0.73548010  0.12732408  0.49546992    -0.05300
C562        C  0.75035995  0.15067948  0.51115299     0.00700
C563        C  0.77440818  0.14563834  0.52422458    -0.07900
C564        C  0.78286259  0.11686744  0.52216193    -0.05300
C565        C  0.76796492  0.09351390  0.50677551     0.00600
C566        C  0.74395246  0.09856194  0.49323655    -0.07800
C567        C  0.72751381  0.07352016  0.47756151     0.62500
H568        H  0.71718073  0.13195949  0.48515512     0.13200
H569        H  0.80115949  0.11221362  0.53247279     0.13300
C570        C  0.79093510  0.17066159  0.53896575     0.62800
F571        F  0.70465645  0.08293941  0.47027942    -0.22400
F572        F  0.72937482  0.05387288  0.53742712    -0.19700
F573        F  0.73301925  0.05960579  0.41005572    -0.19400
F574        F  0.78553159  0.18498754  0.60596441    -0.19400
F575        F  0.78912270  0.18996122  0.47835955    -0.19800
F576        F  0.81376824  0.16116539  0.54648612    -0.22400
C577        C  0.73849816  0.36783322  0.52175292    -0.05300
C578        C  0.75343140  0.34395473  0.51273253     0.00700
C579        C  0.77715908  0.34835627  0.49992405    -0.07900
C580        C  0.78539169  0.37698703  0.49720037    -0.05300
C581        C  0.77052846  0.40084445  0.50711782     0.00600
C582        C  0.74673503  0.39647839  0.51881793    -0.07800
C583        C  0.73029007  0.42214475  0.52691724     0.62500
H584        H  0.72036321  0.36372688  0.53065211     0.13200
H585        H  0.80352247  0.38111337  0.48830053     0.13300
C586        C  0.79360816  0.32273670  0.49102116     0.62800
F587        F  0.70748261  0.41335335  0.53036215    -0.22400
F588        F  0.73183094  0.44040292  0.46449008    -0.19700
F589        F  0.73604593  0.43744011  0.59344272    -0.19400
F590        F  0.78693864  0.30651078  0.42694557    -0.19400
F591        F  0.79323033  0.30532819  0.55547916    -0.19800
F592        F  0.81619230  0.33165281  0.48240047    -0.22400
C593        C  0.61962460  0.28230716  0.51501790    -0.05300
C594        C  0.63050306  0.25558927  0.50096812     0.00700
C595        C  0.61700231  0.23045118  0.48771650    -0.07900
C596        C  0.59269523  0.23292221  0.48942279    -0.05300
C597        C  0.58158872  0.25964922  0.50436400     0.00600
C598        C  0.59530452  0.28498039  0.51646382    -0.07800
C599        C  0.58457638  0.31485397  0.52933403     0.62500
H600        H  0.63054158  0.30107980  0.52522996     0.13200
H601        H  0.58215270  0.21375677  0.48017505     0.13300
C602        C  0.62838090  0.20107352  0.47405000     0.62800
F603        F  0.60086629  0.33671469  0.52698348    -0.22400
F604        F  0.57492524  0.31591804  0.60065357    -0.19700
F605        F  0.56764040  0.32056158  0.47270262    -0.19400
F606        F  0.64303593  0.19409463  0.53615633    -0.19400
F607        F  0.64101881  0.20192354  0.40845117    -0.19800
F608        F  0.61220611  0.17915747  0.46465901    -0.22400
C609        C  0.77838884  0.15294830  0.00608061    -0.05300
C610        C  0.75450390  0.15571978  0.01625084     0.00700
C611        C  0.74096324  0.13056404  0.02495642    -0.07900
C612        C  0.75198680  0.10308657  0.02335532    -0.05300
C613        C  0.77586971  0.10033696  0.01279556     0.00600
C614        C  0.78940386  0.12549552  0.00470210    -0.07800
C615        C  0.81539449  0.12315154  0.99660942     0.62500
H616        H  0.78828232  0.17261511  0.99970077     0.13200
H617        H  0.74210648  0.08340838  0.02971797     0.13300
C618        C  0.71498777  0.13288780  0.03386291     0.62800
F619        F  0.82538857  0.15022164  0.98945503    -0.22400
F620        F  0.82021465  0.10691857  0.93207791    -0.19700
F621        F  0.82541591  0.10974358  0.06086230    -0.19400
F622        F  0.70483599  0.14718593  0.97120270    -0.19400
F623        F  0.71036085  0.14823351  0.10003968    -0.19800
F624        F  0.70491986  0.10576250  0.03865541    -0.22400
C625        C  0.78134126  0.38278588  0.03367332    -0.05300
C626        C  0.76754128  0.40646550  0.00897285     0.00700
C627        C  0.74380748  0.40232236  0.98896620    -0.07900
C628        C  0.73474708  0.37402291  0.99124094    -0.05300
C629        C  0.74857458  0.35026190  0.01534100     0.00600
C630        C  0.77219011  0.35457564  0.03766714    -0.07800
C631        C  0.78762113  0.32943890  0.06484777     0.62500
H632        H  0.79933116  0.38676943  0.05025909     0.13200
H633        H  0.71673320  0.37013264  0.97482857     0.13300
C634        C  0.72813205  0.42797529  0.96786725     0.62800
F635        F  0.81049167  0.33781242  0.07640289    -0.22400
F636        F  0.78690440  0.30732061  0.01067997    -0.19700
F637        F  0.78011472  0.31899469  0.13369098    -0.19400
F638        F  0.73459668  0.43981744  0.89930599    -0.19400
F639        F  0.72986818  0.44897641  0.02501759    -0.19800
F640        F  0.70512179  0.41987293  0.95946453    -0.22400
C641        C  0.70167947  0.23192253  0.80223313    -0.05300
C642        C  0.71833999  0.24868388  0.84343876     0.00700
C643        C  0.73766419  0.25791111  0.80116453    -0.07900
C644        C  0.73552377  0.25805401  0.72025166    -0.05300
C645        C  0.71645202  0.24605486  0.67855118     0.00600
C646        C  0.70114200  0.22880025  0.72161823    -0.07800
C647        C  0.68513766  0.20498374  0.68995464     0.62500
H648        H  0.68994923  0.21878171  0.83370073     0.13200
H649        H  0.75014765  0.26558529  0.68932537     0.13300
C650        C  0.76175435  0.26538584  0.83438581     0.62800
F651        F  0.69038368  0.17930113  0.72837827    -0.22400
F652        F  0.68706540  0.19922847  0.61289940    -0.19700
F653        F  0.66235188  0.21241441  0.70319887    -0.19400
F654        F  0.76475280  0.26111970  0.91231363    -0.19400
F655        F  0.76663991  0.29405101  0.81801341    -0.19800
F656        F  0.77796090  0.24781056  0.79976364    -0.22400
C657        C  0.70073082  0.26789646  0.30221470    -0.05300
C658        C  0.71780501  0.25146750  0.34317825     0.00700
C659        C  0.73770164  0.24319353  0.30147224    -0.07900
C660        C  0.73582095  0.24309151  0.22063709    -0.05300
C661        C  0.71641190  0.25447200  0.17880473     0.00600
C662        C  0.70032752  0.27115731  0.22178407    -0.07800
C663        C  0.68355458  0.29450817  0.19041819     0.62500
H664        H  0.68849457  0.28065181  0.33386739     0.13200
H665        H  0.75081350  0.23605164  0.18995280     0.13300
C666        C  0.76204453  0.23677732  0.33519527     0.62800
F667        F  0.68829231  0.32048093  0.22825608    -0.22400
F668        F  0.66104780  0.28679919  0.20496169    -0.19700
F669        F  0.68489433  0.29980456  0.11306796    -0.19400
F670        F  0.76818993  0.20833740  0.31840836    -0.19400
F671        F  0.76474150  0.24121333  0.41323410    -0.19800
F672        F  0.77756910  0.25500673  0.30132196    -0.22400
C673        C  0.62056606  0.27144224  0.97457423    -0.05300
C674        C  0.63115477  0.24558036  0.00065923     0.00700
C675        C  0.61730389  0.22225205  0.02324356    -0.07900
C676        C  0.59305912  0.22596415  0.02106533    -0.05300
C677        C  0.58218644  0.25215647  0.99681937     0.00600
C678        C  0.59627304  0.27531762  0.97190559    -0.07800
C679        C  0.58614984  0.30417201  0.94362671     0.62500
H680        H  0.63174422  0.28872949  0.95686763     0.13200
H681        H  0.58237287  0.20817592  0.03870981     0.13300
C682        C  0.62811424  0.19341526  0.04831515     0.62800
F683        F  0.60323977  0.32409683  0.92892754    -0.22400
F684        F  0.57232661  0.31621967  0.99861852    -0.19700
F685        F  0.57316271  0.29989279  0.87605059    -0.19400
F686        F  0.64026524  0.19684964  0.11773740    -0.19400
F687        F  0.64307807  0.18353116  0.99366442    -0.19800
F688        F  0.61151257  0.17230482  0.05752420    -0.22400
C689        C  0.71688240  0.75078876  0.93243096     0.30500
C690        C  0.71626125  0.75177344  0.09091752     0.30500
C691        C  0.72487498  0.77919535  0.97230048    -0.05700
C692        C  0.69279709  0.74700942  0.96789917    -0.06500
C693        C  0.73135513  0.72713666  0.97469169    -0.06300
C694        C  0.72526195  0.77916562  0.05226798    -0.05700
C695        C  0.69275893  0.74643578  0.04823186    -0.06500
C696        C  0.73105421  0.72733440  0.05495537    -0.06400
C697        C  0.73395664  0.80553129  0.07730775    -0.31700
N698        N  0.73870613  0.82159994  0.01493563     0.14800
C699        C  0.73256185  0.80618845  0.95064234    -0.31700
H700        H  0.73394191  0.81399105  0.89259772     0.16700
C701        C  0.67013866  0.74299807  0.06848578    -0.31900
N702        N  0.65627234  0.74309457  0.00375863     0.13500
C703        C  0.66976632  0.74621005  0.94236724    -0.30700
C704        C  0.73903170  0.70012899  0.07850122    -0.31000
N705        N  0.74498726  0.68450780  0.01592801     0.14000
H706        H  0.73944461  0.69162661  0.13632199     0.16600
C707        C  0.74020013  0.70060522  0.95231071    -0.31000
H708        H  0.74172351  0.69286113  0.89388554     0.16600
H709        H  0.66304848  0.74897806  0.88393537     0.16600
H710        H  0.73639591  0.81261970  0.13640123     0.16700
H711        H  0.66403848  0.74215099  0.12617271     0.16600
C712        C  0.71605570  0.74908073  0.43188068     0.30500
C713        C  0.71577947  0.74833901  0.59052356     0.30500
C714        C  0.72906925  0.77358381  0.47406652    -0.05700
C715        C  0.69186905  0.75126874  0.46755186    -0.06500
C716        C  0.72569318  0.72142867  0.47120374    -0.06300
C717        C  0.72899081  0.77366795  0.55419555    -0.05700
C718        C  0.69190130  0.75187823  0.54808379    -0.06500
C719        C  0.72629779  0.72154280  0.55126000    -0.06400
C720        C  0.73756569  0.80051561  0.57748085    -0.31700
N721        N  0.74378643  0.81529039  0.51443165     0.14800
C722        C  0.73814995  0.79940924  0.45104163    -0.31700
H723        H  0.73965499  0.80670910  0.39249628     0.16700
C724        C  0.66917606  0.75485565  0.56843848    -0.30700
N725        N  0.65535232  0.75394346  0.50367191     0.13500
C726        C  0.66885544  0.75186426  0.44195414    -0.30700
C727        C  0.73593335  0.69542483  0.57523827    -0.31000
N728        N  0.74083105  0.67952363  0.51205632     0.14000
H729        H  0.73869739  0.68821945  0.63398156     0.16600
C730        C  0.73407786  0.69472859  0.44839630    -0.31000
H731        H  0.73516211  0.68679351  0.39006298     0.16600
H732        H  0.66218560  0.75042670  0.38311566     0.16600
H733        H  0.73835953  0.80935138  0.63522928     0.16700
H734        H  0.66302233  0.75703344  0.62594219     0.16600
C735        C  0.80822605  0.50056650  0.09042791     0.30500
C736        C  0.80634812  0.50002360  0.93157533     0.30500
C737        C  0.79864929  0.52815732  0.05050762    -0.05700
C738        C  0.83164774  0.49548166  0.05198471    -0.06500
C739        C  0.79333467  0.97638851  0.05090159    -0.06300
C740        C  0.79840559  0.52843375  0.97047334    -0.05700
C741        C  0.83076840  0.49616905  0.97137136    -0.06500
C742        C  0.79231830  0.97634826  0.97078792    -0.06400
C743        C  0.79121905  0.55599579  0.94807761    -0.31700
N744        N  0.78643389  0.57172952  0.01185733     0.14800
C745        C  0.79072263  0.55492088  0.07459101    -0.31700
H746        H  0.78851622  0.56184684  0.13339574     0.16700
C747        C  0.85314098  0.99384094  0.94877716    -0.30700
N748        N  0.86732822  0.99044985  0.01204028     0.13500
C749        C  0.85433623  0.99084327  0.07525595    -0.30700
C750        C  0.78240712  0.95053647  0.94658186    -0.31000
N751        N  0.77735261  0.93495847  0.00943461     0.14000
H752        H  0.78025935  0.94290460  0.88779556     0.16600
C753        C  0.78477380  0.94984882  0.07300638    -0.31000
H754        H  0.78478925  0.94127391  0.13071000     0.16600
H755        H  0.86116793  0.98829503  0.13360272     0.16600
H756        H  0.78958664  0.56411290  0.89002199     0.16700
H757        H  0.85914688  0.99503426  0.89090090     0.16600
C758        C  0.80621330  0.49715929  0.59025831     0.30500
C759        C  0.80553706  0.49775022  0.43144940     0.30500
C760        C  0.79355397  0.52322778  0.55058757    -0.05700
C761        C  0.83006075  0.49905155  0.55378127    -0.06500
C762        C  0.79477773  0.97103318  0.54853122    -0.06300
C763        C  0.79320184  0.52321642  0.47038138    -0.05700
C764        C  0.82975036  0.49810765  0.47337503    -0.06500
C765        C  0.79510527  0.97067283  0.46849817    -0.06400
C766        C  0.78324412  0.54900784  0.44557031    -0.31700
N767        N  0.77760273  0.56469829  0.50818301     0.14800
C768        C  0.78446207  0.54982737  0.57227956    -0.31700
H769        H  0.78365273  0.55850097  0.62999032     0.16700
C770        C  0.85246341  0.99553051  0.45344633    -0.30700
N771        N  0.86632257  0.99745455  0.51791436     0.13500
C772        C  0.85286569  0.99981184  0.57962877    -0.30700
C773        C  0.78648169  0.94409706  0.44451237    -0.31000
N774        N  0.77997996  0.92936693  0.50727284     0.14000
H775        H  0.78527023  0.93583812  0.38621015     0.16600
C776        C  0.78516778  0.94539170  0.57101148    -0.31000
H777        H  0.78278684  0.93843895  0.62937822     0.16600
H778        H  0.85936701  0.00140241  0.63853967     0.16600
H779        H  0.78103738  0.55630940  0.38672867     0.16700
H780        H  0.85871834  0.99193832  0.39640928     0.16600
O781        O  0.47512083  0.77255232  0.96314467    -0.72400
O782        O  0.54472287  0.77172916  0.95878871    -0.73400
O783        O  0.50834776  0.74195110  0.87998236    -0.62000
O784        O  0.51092807  0.80314434  0.04263758    -0.70500
O785        O  0.51228737  0.76742636  0.12841842    -0.70000
O786        O  0.51024289  0.70602597  0.96515953    -0.61300
O787        O  0.54614214  0.73661576  0.04510180    -0.73800
O788        O  0.47655957  0.73701643  0.04854492    -0.72500
Cu789      Cu  0.50977474  0.77352981  0.95800956     1.04600
Cu790      Cu  0.51141433  0.73560900  0.05011092     1.04300
C791        C  0.46478675  0.75508050  0.00669624     0.93800
C792        C  0.55655590  0.75379800  0.00072172     0.92900
C793        C  0.50885594  0.71485627  0.89591719     0.85000
C794        C  0.51141850  0.79449397  0.11199886     0.91300
O795        O  0.54518027  0.77801254  0.54787102    -0.72400
O796        O  0.47544054  0.77999973  0.54532234    -0.73400
O797        O  0.51075496  0.74854124  0.62710701    -0.62000
O798        O  0.50987055  0.80999313  0.46635029    -0.70500
O799        O  0.50852966  0.77419846  0.37980850    -0.70000
O800        O  0.50979519  0.71277343  0.54047362    -0.61300
O801        O  0.47447417  0.74450430  0.45876349    -0.73800
O802        O  0.54414579  0.74278812  0.46061673    -0.72500
Cu803      Cu  0.51037761  0.78029727  0.54995791     1.04600
Cu804      Cu  0.50922487  0.74238816  0.45665026     1.04300
C805        C  0.55574422  0.76035042  0.50414862     0.93800
C806        C  0.46389009  0.76234547  0.50189673     0.92900
C807        C  0.51042037  0.72148341  0.61006106     0.85000
C808        C  0.50873961  0.80128548  0.39680137     0.91300
O809        O  0.97566207  0.95664332  0.95297483    -0.72400
O810        O  0.04549550  0.95481633  0.94012202    -0.73400
O811        O  0.01241127  0.92579004  0.03123027    -0.62000
O812        O  0.00843518  0.98565196  0.86392903    -0.70500
O813        O  0.01123218  0.52224000  0.94868902    -0.70000
O814        O  0.01566946  0.46324048  0.11308216    -0.61300
O815        O  0.04782241  0.49159665  0.02322740    -0.73800
O816        O  0.97886133  0.49313657  0.03686020    -0.72500
Cu817      Cu  0.01042652  0.95438563  0.94386343     1.04600
Cu818      Cu  0.01352054  0.49363109  0.03358002     1.04300
C819        C  0.96609316  0.97507968  0.99713607     0.93800
C820        C  0.05752661  0.97339005  0.97897291     0.92900
C821        C  0.01429537  0.93562073  0.09981767     0.85000
C822        C  0.00910291  0.01284201  0.88001411     0.91300
O823        O  0.01033692  0.53777393  0.52987387    -0.72400
O824        O  0.00733424  0.47565653  0.36820507    -0.73400
O825        O  0.97467705  0.50509545  0.45781935    -0.62000
O826        O  0.04345918  0.50831798  0.44004553    -0.70500
O827        O  0.04816600  0.97305582  0.52588766    -0.70000
O828        O  0.97858205  0.97024603  0.54522222    -0.61300
O829        O  0.01164539  0.94021769  0.45484306    -0.73800
O830        O  0.01520980  0.00185428  0.61534830    -0.72500
Cu831      Cu  0.00882485  0.50780270  0.44563652     1.04600
Cu832      Cu  0.01356748  0.97011925  0.53840712     1.04300
C833        C  0.01295077  0.02884669  0.59945443     0.93800
C834        C  0.00893834  0.94851388  0.38543127     0.92900
C835        C  0.96554814  0.98771700  0.50563094     0.85000
C836        C  0.05686843  0.99142488  0.48041554     0.91300
C837        C  0.30473514  0.75483822  0.91813689     0.30500
C838        C  0.30494661  0.75570054  0.07676758     0.30500
C839        C  0.29194309  0.73002588  0.95609284    -0.05700
C840        C  0.32891583  0.75311298  0.96082055    -0.06500
C841        C  0.29472202  0.78235081  0.95548612    -0.06300
C842        C  0.29212442  0.73010815  0.03635424    -0.05700
C843        C  0.32883281  0.75247778  0.04124476    -0.06500
C844        C  0.29411848  0.78224688  0.03531241    -0.06400
C845        C  0.28530460  0.70262391  0.05742023    -0.31700
N846        N  0.28000838  0.68699663  0.99302034     0.14800
C847        C  0.28404418  0.70337521  0.93079907    -0.31700
H848        H  0.28223454  0.69600979  0.87170923     0.16700
C849        C  0.35154387  0.75016899  0.06834943    -0.30700
N850        N  0.36538674  0.75080572  0.00749734     0.13500
C851        C  0.35195656  0.75334196  0.94211356    -0.30700
C852        C  0.28448955  0.80833860  0.05758464    -0.31000
N853        N  0.27998265  0.82451936  0.99382072     0.14000
H854        H  0.28171368  0.81548503  0.11585843     0.16600
C855        C  0.28624631  0.80905506  0.93129992    -0.31000
H856        H  0.28498711  0.81689864  0.87288294     0.16600
H857        H  0.35873874  0.75595283  0.88559933     0.16600
H858        H  0.28516858  0.69390743  0.11494759     0.16700
H859        H  0.35764609  0.74910209  0.12776690     0.16600
C860        C  0.30453407  0.75353900  0.41777635     0.30500
C861        C  0.30565141  0.75351460  0.57638018     0.30500
C862        C  0.29934748  0.72428749  0.45588442    -0.05700
C863        C  0.32810091  0.76111513  0.45916738    -0.06500
C864        C  0.28795192  0.77494104  0.45582670    -0.06300
C865        C  0.29928780  0.72469738  0.53581171    -0.05700
C866        C  0.32839947  0.76217938  0.53954499    -0.06500
C867        C  0.28846645  0.77529220  0.53620100    -0.06400
C868        C  0.29228583  0.69771094  0.55914152    -0.31700
N869        N  0.28814387  0.68092069  0.49590850     0.14800
C870        C  0.29298483  0.69656942  0.43268145    -0.31700
H871        H  0.29100164  0.68868692  0.37419325     0.16700
C872        C  0.35092247  0.76773573  0.56487275    -0.30700
N873        N  0.36440181  0.76840579  0.50298368     0.13500
C874        C  0.35087816  0.76357207  0.43885185    -0.30700
C875        C  0.27916072  0.80203530  0.55648804    -0.31000
N876        N  0.27137748  0.81609647  0.49214411     0.14000
H877        H  0.27955768  0.81168161  0.61333129     0.16600
C878        C  0.27734559  0.80026619  0.43033540    -0.31000
H879        H  0.27594734  0.80783030  0.37153666     0.16600
H880        H  0.35755126  0.76023694  0.38229038     0.16600
H881        H  0.28993262  0.69095292  0.61769847     0.16700
H882        H  0.35737931  0.76898760  0.62392266     0.16600
C883        C  0.21500607  0.00629519  0.06827212     0.30500
C884        C  0.21524227  0.00610866  0.90991361     0.30500
C885        C  0.23036139  0.98252965  0.03179173    -0.05700
C886        C  0.19154761  0.00009665  0.02544925    -0.06500
C887        C  0.22378119  0.53395710  0.03000672    -0.06300
C888        C  0.23049600  0.98240810  0.95073665    -0.05700
C889        C  0.19170725  0.00000952  0.94516801    -0.06500
C890        C  0.22400927  0.53384557  0.95048978    -0.06400
C891        C  0.23659650  0.95442958  0.92920893    -0.31700
N892        N  0.24089120  0.93830921  0.99292860     0.14800
C893        C  0.23640408  0.95466770  0.05525338    -0.31700
H894        H  0.23638771  0.94630949  0.11316437     0.16700
C895        C  0.16973690  0.99253167  0.91815552    -0.30700
N896        N  0.15637279  0.48928814  0.97820860     0.13500
C897        C  0.16940147  0.99276693  0.04484530    -0.30700
C898        C  0.23407060  0.55937662  0.92864864    -0.31000
N899        N  0.23955766  0.57504102  0.99288216     0.14000
H900        H  0.23723160  0.56608458  0.87053538     0.16600
C901        C  0.23366472  0.55963931  0.05525497    -0.31000
H902        H  0.23663545  0.56646954  0.11435981     0.16600
H903        H  0.16331333  0.49069316  0.10129430     0.16600
H904        H  0.23650711  0.94571181  0.87135663     0.16700
H905        H  0.16386825  0.99023455  0.85870339     0.16600
C906        C  0.21705865  0.00445522  0.56850586     0.30500
C907        C  0.21675318  0.00401608  0.41005087     0.30500
C908        C  0.22532712  0.97591240  0.53031844    -0.05700
C909        C  0.19290035  0.00824666  0.52677438    -0.06500
C910        C  0.23131419  0.52823192  0.52986789    -0.06300
C911        C  0.22511087  0.97577587  0.44995804    -0.05700
C912        C  0.19272205  0.00787375  0.44597033    -0.06500
C913        C  0.23105782  0.52791902  0.45030650    -0.06400
C914        C  0.23197797  0.94839510  0.42704334    -0.31700
N915        N  0.23711180  0.93236521  0.49066964     0.14800
C916        C  0.23246584  0.94848721  0.55386961    -0.31700
H917        H  0.23411476  0.94070982  0.61230491     0.16700
C918        C  0.17028685  0.00106251  0.42106362    -0.30700
N919        N  0.15695683  0.49886289  0.48285941     0.13500
C920        C  0.17051846  0.00216011  0.54707898    -0.30700
C921        C  0.24242051  0.55241871  0.42750795    -0.31000
N922        N  0.24985885  0.56725285  0.49122267     0.14000
H923        H  0.24412514  0.55970324  0.36900456     0.16600
C924        C  0.24283437  0.55298887  0.55409130    -0.31000
H925        H  0.24508618  0.56072488  0.61267832     0.16600
H926        H  0.16463537  0.99990729  0.60470483     0.16600
H927        H  0.23324280  0.94062023  0.36862551     0.16700
H928        H  0.16426314  0.99675376  0.36245185     0.16600
C929        C  0.23538941  0.99695816  0.78541675    -0.05300
C930        C  0.21588844  0.00837296  0.82153550     0.00700
C931        C  0.20013696  0.52522168  0.77373040    -0.07900
C932        C  0.20111003  0.52268528  0.69324433    -0.05300
C933        C  0.21833781  0.00654259  0.65725807     0.00600
C934        C  0.23770294  0.99741345  0.70527412    -0.07800
C935        C  0.26187843  0.98977616  0.67938205     0.62500
H936        H  0.25010827  0.98939718  0.82053435     0.13200
H937        H  0.18875451  0.53526959  0.65847179     0.13300
C938        C  0.18258643  0.54752660  0.80132995     0.62800
F939        F  0.27779437  0.00744154  0.71816964    -0.22400
F940        F  0.26493986  0.99356374  0.60215559    -0.19700
F941        F  0.26696813  0.96120367  0.69862437    -0.19400
F942        F  0.18376272  0.55267419  0.87923562    -0.19400
F943        F  0.16042588  0.53850683  0.78014242    -0.19800
F944        F  0.18640096  0.57388113  0.76608281    -0.22400
C945        C  0.20022160  0.52118692  0.28061208    -0.05300
C946        C  0.21798156  0.00578094  0.32182038     0.00700
C947        C  0.23752558  0.99707865  0.27900430    -0.07900
C948        C  0.23534658  0.99719325  0.19812870    -0.05300
C949        C  0.21569177  0.00837410  0.15701913     0.00600
C950        C  0.19941958  0.52425798  0.20017515    -0.07800
C951        C  0.18160760  0.54629233  0.16924085     0.62500
H952        H  0.18747588  0.53309476  0.31237809     0.13200
H953        H  0.25021258  0.99013883  0.16682918     0.13300
C954        C  0.26169840  0.98925106  0.31173469     0.62800
F955        F  0.18512123  0.57257756  0.20692450    -0.22400
F956        F  0.15970135  0.03685719  0.18625044    -0.19700
F957        F  0.18264895  0.55173090  0.09186966    -0.19400
F958        F  0.26682163  0.96063529  0.29335641    -0.19400
F959        F  0.26474799  0.49322689  0.38947970    -0.19800
F960        F  0.27773026  0.00689682  0.27837068    -0.22400
C961        C  0.24599547  0.61957908  0.51055770    -0.05300
C962        C  0.25990125  0.59569115  0.49172047     0.00700
C963        C  0.28332514  0.59987244  0.47426329    -0.07900
C964        C  0.29221141  0.62834474  0.47618128    -0.05300
C965        C  0.27830562  0.65229483  0.49549301     0.00600
C966        C  0.25477124  0.64800871  0.51237868    -0.07800
C967        C  0.23889188  0.67340412  0.53062783     0.62500
H968        H  0.22812086  0.61560268  0.52361829     0.13200
H969        H  0.31008335  0.63222974  0.46296433     0.13300
C970        C  0.29873127  0.57415113  0.45518149     0.62800
F971        F  0.21606530  0.66480245  0.53525834    -0.22400
F972        F  0.23968645  0.69411656  0.47363191    -0.19700
F973        F  0.24576821  0.68573448  0.60031589    -0.19400
F974        F  0.29065116  0.56119430  0.38757335    -0.19400
F975        F  0.29859064  0.55398783  0.51385817    -0.19800
F976        F  0.32144081  0.58244845  0.44601256    -0.22400
C977        C  0.27797204  0.86827968  0.50044592    -0.05300
C978        C  0.26247051  0.84529353  0.48973216     0.00700
C979        C  0.23850830  0.85103447  0.47757123    -0.07900
C980        C  0.23060282  0.88010463  0.47853753    -0.05300
C981        C  0.24607570  0.90313022  0.49061073     0.00600
C982        C  0.27016976  0.89733808  0.50012728    -0.07800
C983        C  0.28748196  0.92178395  0.50902931     0.62500
H984        H  0.29625254  0.86309573  0.50885115     0.13200
H985        H  0.21231459  0.88521206  0.47004229     0.13300
C986        C  0.22158132  0.82634314  0.46463389     0.62800
F987        F  0.31013464  0.91148310  0.51332997    -0.22400
F988        F  0.28360530  0.93717660  0.57542658    -0.19700
F989        F  0.28511013  0.94027780  0.44689058    -0.19400
F990        F  0.22300695  0.80774537  0.52684641    -0.19400
F991        F  0.22690233  0.81104672  0.39897316    -0.19800
F992        F  0.19893001  0.83639712  0.45577496    -0.22400
C993        C  0.24683589  0.65575541  0.00740250    -0.05300
C994        C  0.27028463  0.65847741  0.99166635     0.00700
C995        C  0.28382059  0.63350275  0.97619502    -0.07900
C996        C  0.27322008  0.60605014  0.97758924    -0.05300
C997        C  0.24974452  0.60335027  0.99406122     0.00600
C998        C  0.23619660  0.62844350  0.00807291    -0.07800
C999        C  0.21053565  0.62620787  0.02213616     0.62500
H1000       H  0.23698463  0.67537164  0.01893645     0.13200
H1001       H  0.28306882  0.58644732  0.96595666     0.13300
C1002       C  0.30929786  0.63612540  0.95952384     0.62800
F1003       F  0.19995626  0.65334876  0.02499173    -0.22400
F1004       F  0.20750988  0.61244354  0.09127396    -0.19700
F1005       F  0.19962155  0.61043150  0.96347264    -0.19400
F1006       F  0.32088067  0.65010790  0.02006125    -0.19400
F1007       F  0.31169845  0.65198855  0.89316929    -0.19800
F1008       F  0.31966791  0.60914882  0.94946496    -0.22400
C1009       C  0.24661066  0.85705766  0.00637708    -0.05300
C1010       C  0.27027254  0.85334379  0.99303385     0.00700
C1011       C  0.28425385  0.87783502  0.98114263    -0.07900
C1012       C  0.27386094  0.90559259  0.98109909    -0.05300
C1013       C  0.25023626  0.90932960  0.99407628     0.00600
C1014       C  0.23627308  0.88494007  0.00722476    -0.07800
C1015       C  0.21067310  0.88860180  0.02153803     0.62500
H1016       H  0.23641989  0.83789319  0.01630429     0.13200
H1017       H  0.28406217  0.92478536  0.97159541     0.13300
C1018       C  0.31011075  0.87452939  0.97084634     0.62800
F1019       F  0.19964936  0.86204103  0.02469938    -0.22400
F1020       F  0.19997258  0.90470167  0.96302488    -0.19700
F1021       F  0.20795069  0.90289116  0.09067378    -0.19400
F1022       F  0.31406064  0.85901505  0.90441210    -0.19400
F1023       F  0.32021678  0.85991908  0.03305165    -0.19800
F1024       F  0.32080678  0.90123208  0.96553822    -0.22400
C1025       C  0.28562101  0.76124955  0.70183388    -0.05300
C1026       C  0.30549311  0.75118346  0.66498628     0.00700
C1027       C  0.32230642  0.73561503  0.71199653    -0.07900
C1028       C  0.32117864  0.73772964  0.79255554    -0.05300
C1029       C  0.30335805  0.75275571  0.82942542     0.00600
C1030       C  0.28351487  0.76068804  0.78202560    -0.07800
C1031       C  0.25901947  0.76642802  0.80869874     0.62500
H1032       H  0.27038548  0.76744193  0.66741891     0.13200
H1033       H  0.33367485  0.72530317  0.82698980     0.13300
C1034       C  0.34095508  0.71468534  0.68448503     0.62800
F1035       F  0.24379708  0.74827897  0.76838940    -0.22400
F1036       F  0.25262303  0.79491394  0.79257723    -0.19700
F1037       F  0.25616198  0.76127610  0.88546583    -0.19400
F1038       F  0.36257234  0.72457515  0.70940169    -0.19400
F1039       F  0.34100689  0.71060959  0.60621963    -0.19800
F1040       F  0.33764692  0.68765106  0.71670900    -0.22400
C1041       C  0.28580914  0.74480295  0.20151966    -0.05300
C1042       C  0.30426235  0.75811666  0.16507605     0.00700
C1043       C  0.31880804  0.77651983  0.21222283    -0.07900
C1044       C  0.31821165  0.77379898  0.29255732    -0.05300
C1045       C  0.30270512  0.75545423  0.32914184     0.00600
C1046       C  0.28390927  0.74449473  0.28183924    -0.07800
C1047       C  0.26044431  0.73471808  0.30880851     0.62500
H1048       H  0.27142186  0.73639500  0.16673232     0.13200
H1049       H  0.32894346  0.78835523  0.32705028     0.13300
C1050       C  0.33410010  0.80103078  0.18515176     0.62800
F1051       F  0.24321778  0.75149792  0.27266637    -0.22400
F1052       F  0.25766288  0.73759042  0.38647364    -0.19700
F1053       F  0.25693218  0.70594584  0.28804707    -0.19400
F1054       F  0.33320044  0.80549248  0.10709629    -0.19400
F1055       F  0.35691282  0.79547755  0.20861779    -0.19800
F1056       F  0.32715017  0.82683557  0.21900422    -0.22400
C1057       C  0.09642856  0.97089900  0.50929941    -0.05300
C1058       C  0.08281150  0.49371122  0.47543357     0.00700
C1059       C  0.09426028  0.51716669  0.43964015    -0.07900
C1060       C  0.11870749  0.51760064  0.44276070    -0.05300
C1061       C  0.13208607  0.49589866  0.47988367     0.00600
C1062       C  0.12086783  0.97148720  0.51168210    -0.07800
C1063       C  0.13466340  0.94629393  0.54714855     0.62500
H1064       H  0.08786257  0.95278607  0.53515556     0.13200
H1065       H  0.12784927  0.53532865  0.41727872     0.13300
C1066       C  0.08122659  0.54205265  0.39914367     0.62800
F1067       F  0.12070819  0.92263678  0.56015190    -0.22400
F1068       F  0.14482838  0.95470786  0.61682382    -0.19700
F1069       F  0.15172174  0.93736487  0.49845298    -0.19400
F1070       F  0.06708637  0.55619162  0.44992254    -0.19400
F1071       F  0.06802504  0.53138648  0.33729559    -0.19800
F1072       F  0.09608981  0.56254316  0.37107432    -0.22400
C1073       C  0.09242397  0.50410509  0.97766512    -0.05300
C1074       C  0.08328728  0.47596010  0.97122023     0.00700
C1075       C  0.09839946  0.95177800  0.96092264    -0.07900
C1076       C  0.12257044  0.95682062  0.96415098    -0.05300
C1077       C  0.13169438  0.48519811  0.97384973     0.00600
C1078       C  0.11631008  0.50918667  0.97804556    -0.07800
C1079       C  0.12510438  0.54009577  0.98345121     0.62500
H1080       H  0.08056233  0.52236442  0.98284751     0.13200
H1081       H  0.13477325  0.93897985  0.95816480     0.13300
C1082       C  0.08952501  0.92120538  0.94628670     0.62800
F1083       F  0.10719639  0.56039481  0.98029689    -0.22400
F1084       F  0.13925775  0.54554828  0.92338132    -0.19700
F1085       F  0.13745573  0.54389905  0.05199546    -0.19400
F1086       F  0.07727159  0.92026745  0.87638296    -0.19400
F1087       F  0.07520340  0.91318274  0.00390223    -0.19800
F1088       F  0.10744169  0.90098030  0.94400333    -0.22400
C1089       C  0.03074822  0.04053766  0.78883175    -0.05300
C1090       C  0.00914924  0.03355468  0.81700845     0.00700
C1091       C  0.98878889  0.54108784  0.77436263    -0.07900
C1092       C  0.99056732  0.54997634  0.69779895    -0.05300
C1093       C  0.01221324  0.04890520  0.66449325     0.00600
C1094       C  0.03240981  0.04948030  0.71270064    -0.07800
C1095       C  0.05610383  0.05286639  0.68043819     0.62500
H1096       H  0.04645254  0.03599551  0.82330697     0.13200
H1097       H  0.97506069  0.55124641  0.66059096     0.13300
C1098       C  0.96525421  0.53692089  0.80812964     0.62800
F1099       F  0.06965514  0.07029956  0.72883711    -0.22400
F1100       F  0.05447342  0.06574558  0.60875326    -0.19700
F1101       F  0.06666951  0.02585317  0.67409252    -0.19400
F1102       F  0.96431069  0.55230414  0.87643479    -0.19400
F1103       F  0.96173118  0.50774710  0.82227209    -0.19800
F1104       F  0.94743057  0.54680896  0.75901709    -0.22400
C1105       C  0.03061743  0.42000733  0.29428219    -0.05300
C1106       C  0.00897505  0.92749889  0.32230612     0.00700
C1107       C  0.98868846  0.92314686  0.27575061    -0.07900
C1108       C  0.99111811  0.91649766  0.19783475    -0.05300
C1109       C  0.01309174  0.91676938  0.16661030     0.00600
C1110       C  0.03290465  0.41458719  0.21567019    -0.07800
C1111       C  0.05670796  0.41122634  0.18351839     0.62500
H1112       H  0.04600810  0.42263458  0.33145009     0.13200
H1113       H  0.97596962  0.91706708  0.15902275     0.13300
C1114       C  0.96483848  0.92800307  0.30711020     0.62800
F1115       F  0.07306131  0.40310844  0.23999927    -0.22400
F1116       F  0.06338959  0.43725431  0.15206674    -0.19700
F1117       F  0.05610824  0.38985595  0.12729602    -0.19400
F1118       F  0.96257845  0.91052244  0.37056086    -0.19400
F1119       F  0.94736188  0.92105413  0.25346272    -0.19800
F1120       F  0.96194491  0.95681521  0.32834818    -0.22400
C1121       C  0.42700252  0.79000527  0.51290188    -0.05300
C1122       C  0.43810105  0.76297207  0.50155086     0.00700
C1123       C  0.42439421  0.73751284  0.49223955    -0.07900
C1124       C  0.40013403  0.74023007  0.49470473    -0.05300
C1125       C  0.38926847  0.76719481  0.50538333     0.00600
C1126       C  0.40268582  0.79254665  0.51404166    -0.07800
C1127       C  0.39111047  0.82205445  0.52272313     0.62500
H1128       H  0.43753246  0.80929323  0.51974420     0.13200
H1129       H  0.38920037  0.72132270  0.48724693     0.13300
C1130       C  0.43501992  0.70750929  0.48047339     0.62800
F1131       F  0.40712945  0.84429299  0.52764004    -0.22400
F1132       F  0.37861790  0.82257742  0.58873973    -0.19700
F1133       F  0.37620868  0.82728048  0.45991860    -0.19400
F1134       F  0.45216519  0.70213685  0.53655753    -0.19400
F1135       F  0.44436946  0.70590515  0.40873486    -0.19800
F1136       F  0.41871915  0.68572332  0.48464131    -0.22400
C1137       C  0.42809842  0.72867500  0.02317663    -0.05300
C1138       C  0.43902877  0.75518517  0.00817780     0.00700
C1139       C  0.42518342  0.78072836  0.99632241    -0.07900
C1140       C  0.40090613  0.77841813  0.99773323    -0.05300
C1141       C  0.39022452  0.75188030  0.01138601     0.00600
C1142       C  0.40382490  0.72661888  0.02487337    -0.07800
C1143       C  0.39252430  0.69762858  0.03941804     0.62500
H1144       H  0.43872762  0.70935917  0.03249120     0.13200
H1145       H  0.38985250  0.79729475  0.98742140     0.13300
C1146       C  0.43567306  0.81041709  0.98329058     0.62800
F1147       F  0.40870635  0.67525199  0.04663350    -0.22400
F1148       F  0.37715370  0.69092342  0.97898234    -0.19700
F1149       F  0.38063656  0.69915503  0.10661879    -0.19400
F1150       F  0.41920375  0.83250486  0.98544702    -0.19400
F1151       F  0.44534168  0.81104366  0.91202076    -0.19800
F1152       F  0.45253789  0.81620159  0.03988246    -0.22400
C1153       C  0.48923784  0.69580904  0.70593383    -0.05300
C1154       C  0.51060323  0.70090772  0.67350892     0.00700
C1155       C  0.53141301  0.69593138  0.71718770    -0.07900
C1156       C  0.53004998  0.69187110  0.79660667    -0.05300
C1157       C  0.50864706  0.69453744  0.83127986     0.00600
C1158       C  0.48796326  0.69257503  0.78547003    -0.07800
C1159       C  0.46426128  0.69173794  0.81948584     0.62500
H1160       H  0.47334392  0.69880958  0.67138993     0.13200
H1161       H  0.54578656  0.69287885  0.83277939     0.13300
C1162       C  0.55480259  0.70109730  0.68353233     0.62800
F1163       F  0.45251960  0.71759479  0.80410916    -0.22400
F1164       F  0.46574329  0.68760510  0.89817335    -0.19700
F1165       F  0.45173761  0.66901181  0.78667973    -0.19400
F1166       F  0.55856306  0.73069535  0.67850436    -0.19400
F1167       F  0.55541489  0.68882077  0.61093835    -0.19800
F1168       F  0.57256366  0.68879775  0.72877603    -0.22400
C1169       C  0.52831277  0.82700305  0.29834337    -0.05300
C1170       C  0.50729807  0.82178885  0.33310997     0.00700
C1171       C  0.48654609  0.82160943  0.28749691    -0.07900
C1172       C  0.48805074  0.81725809  0.20842305    -0.05300
C1173       C  0.50973198  0.81510926  0.17556995     0.00600
C1174       C  0.52983653  0.82348116  0.21856947    -0.07800
C1175       C  0.55289682  0.82586084  0.18100890     0.62500
H1176       H  0.54403788  0.82851375  0.33425546     0.13200
H1177       H  0.47252023  0.81176176  0.17454198     0.13300
C1178       C  0.46297285  0.82062793  0.32221949     0.62800
F1179       F  0.56016878  0.79874112  0.15632239    -0.22400
F1180       F  0.56981666  0.83707171  0.23119606    -0.19700
F1181       F  0.55040489  0.84429816  0.11864972    -0.19400
F1182       F  0.46425925  0.82792836  0.39946061    -0.19400
F1183       F  0.45393742  0.79296834  0.31388588    -0.19800
F1184       F  0.44816395  0.84027294  0.28481772    -0.22400
C1185       C  0.92869338  0.51538519  0.49127066    -0.05300
C1186       C  0.93991744  0.98927453  0.51481336     0.00700
C1187       C  0.92644319  0.96614861  0.54317307    -0.07900
C1188       C  0.90215502  0.96989350  0.54496274    -0.05300
C1189       C  0.89116269  0.99563829  0.51987630     0.00600
C1190       C  0.90454703  0.51892005  0.49323787    -0.07800
C1191       C  0.89310365  0.54749591  0.46891242     0.62500
H1192       H  0.93892284  0.53322494  0.47131307     0.13200
H1193       H  0.89133958  0.95260803  0.56490131     0.13300
C1194       C  0.93723971  0.93753331  0.57034655     0.62800
F1195       F  0.90925340  0.56827302  0.45154686    -0.22400
F1196       F  0.88008120  0.55825156  0.52784195    -0.19700
F1197       F  0.87879502  0.54326859  0.40431677    -0.19400
F1198       F  0.95115331  0.94223109  0.63572547    -0.19400
F1199       F  0.95035828  0.92554318  0.51340996    -0.19800
F1200       F  0.92061483  0.91740035  0.58811076    -0.22400
C1201       C  0.81996579  0.97947123  0.80596053    -0.05300
C1202       C  0.80428289  0.49776071  0.84292959     0.00700
C1203       C  0.78500253  0.50797943  0.79611384    -0.07900
C1204       C  0.78688929  0.50785568  0.71568405    -0.05300
C1205       C  0.80568288  0.49484412  0.67874441     0.00600
C1206       C  0.82035281  0.97639409  0.72549102    -0.07800
C1207       C  0.83555544  0.95137951  0.69792110     0.62500
H1208       H  0.83121731  0.96536083  0.84053843     0.13200
H1209       H  0.77221337  0.51584880  0.68116431     0.13300
C1210       C  0.76113944  0.51645751  0.82393584     0.62800
F1211       F  0.82913557  0.92603569  0.73362498    -0.22400
F1212       F  0.85858829  0.45657267  0.71913168    -0.19700
F1213       F  0.83385748  0.94608354  0.62008166    -0.19400
F1214       F  0.75673842  0.54553932  0.80859865    -0.19400
F1215       F  0.75807790  0.01134817  0.90072963    -0.19800
F1216       F  0.74449242  0.50017622  0.78410667    -0.22400
C1217       C  0.82225803  0.51550408  0.30806038    -0.05300
C1218       C  0.80450291  0.50016720  0.34288604     0.00700
C1219       C  0.78478924  0.99289067  0.29413720    -0.07900
C1220       C  0.78730982  0.99265503  0.21402766    -0.05300
C1221       C  0.80757763  0.50258275  0.17907738     0.00600
C1222       C  0.82346952  0.51850453  0.22785052    -0.07800
C1223       C  0.84069729  0.54102711  0.20256523     0.62500
H1224       H  0.83447815  0.52760878  0.34407076     0.13200
H1225       H  0.77234829  0.98670319  0.17812225     0.13300
C1226       C  0.76016554  0.98801139  0.31957449     0.62800
F1227       F  0.83627341  0.56711863  0.23956314    -0.22400
F1228       F  0.83962829  0.54670063  0.12503056    -0.19700
F1229       F  0.86293874  0.53196612  0.22414659    -0.19400
F1230       F  0.75708764  0.99343076  0.39629434    -0.19400
F1231       F  0.75368835  0.95971780  0.30279632    -0.19800
F1232       F  0.74518640  0.00661847  0.27902480    -0.22400
C1233       C  0.90102011  0.95856145  0.99764636    -0.05300
C1234       C  0.89203026  0.98648906  0.01076926     0.00700
C1235       C  0.90735480  0.51069472  0.01706215    -0.07900
C1236       C  0.93131191  0.50582500  0.01242155    -0.05300
C1237       C  0.94037990  0.97748472  0.00006315     0.00600
C1238       C  0.92503882  0.95350095  0.99133434    -0.07800
C1239       C  0.93369451  0.92274295  0.97635750     0.62500
H1240       H  0.88885329  0.94083927  0.99123791     0.13200
H1241       H  0.94300047  0.52408398  0.01781392     0.13300
C1242       C  0.89800418  0.54131148  0.02762728     0.62800
F1243       F  0.91595696  0.90267892  0.97720950    -0.22400
F1244       F  0.95021716  0.91486196  0.03235386    -0.19700
F1245       F  0.94324299  0.92120612  0.90493125    -0.19400
F1246       F  0.88673151  0.54311955  0.09578373    -0.19400
F1247       F  0.88260665  0.54822695  0.96738170    -0.19800
F1248       F  0.91549359  0.56175344  0.02992790    -0.22400
C1249       C  0.73552344  0.62728581  0.49698408    -0.05300
C1250       C  0.75041601  0.65067658  0.51205237     0.00700
C1251       C  0.77448733  0.64569566  0.52458408    -0.07900
C1252       C  0.78297379  0.61694909  0.52237856    -0.05300
C1253       C  0.76807572  0.59356762  0.50741359     0.00600
C1254       C  0.74402815  0.59854425  0.49463080    -0.07800
C1255       C  0.72760324  0.57345077  0.47946262     0.62500
H1256       H  0.71719954  0.63187912  0.48713459     0.13200
H1257       H  0.80129488  0.61233627  0.53222290     0.13300
C1258       C  0.79099633  0.67076257  0.53893691     0.62800
F1259       F  0.70470781  0.58278257  0.47326065    -0.22400
F1260       F  0.72974737  0.55372405  0.53909162    -0.19700
F1261       F  0.73288179  0.55965393  0.41156760    -0.19400
F1262       F  0.78565413  0.68514216  0.60592124    -0.19400
F1263       F  0.78908439  0.69000138  0.47821718    -0.19800
F1264       F  0.81384577  0.66131648  0.54622317    -0.22400
C1265       C  0.73831085  0.86790015  0.52211910    -0.05300
C1266       C  0.75320080  0.84396042  0.51348104     0.00700
C1267       C  0.77695026  0.84824025  0.50083243    -0.07900
C1268       C  0.78525803  0.87683111  0.49792716    -0.05300
C1269       C  0.77043280  0.90075945  0.50741167     0.00600
C1270       C  0.74661527  0.89650331  0.51893254    -0.07800
C1271       C  0.73021466  0.92224050  0.52654841     0.62500
H1272       H  0.72015519  0.86387397  0.53086687     0.13200
H1273       H  0.80341170  0.88086949  0.48919959     0.13300
C1274       C  0.79332929  0.82252644  0.49222762     0.62800
F1275       F  0.70737809  0.91353917  0.52973982    -0.22400
F1276       F  0.73187951  0.94039899  0.46397679    -0.19700
F1277       F  0.73591710  0.93761079  0.59299749    -0.19400
F1278       F  0.78656841  0.80615396  0.42851395    -0.19400
F1279       F  0.79296608  0.80529116  0.55701646    -0.19800
F1280       F  0.81592214  0.83131978  0.48318299    -0.22400
C1281       C  0.61967315  0.78219384  0.51497136    -0.05300
C1282       C  0.63046880  0.75539177  0.50135126     0.00700
C1283       C  0.61689467  0.73032813  0.48798437    -0.07900
C1284       C  0.59259233  0.73292933  0.48956301    -0.05300
C1285       C  0.58156448  0.75975197  0.50404725     0.00600
C1286       C  0.59535680  0.78502995  0.51582339    -0.07800
C1287       C  0.58470807  0.81503412  0.52727661     0.62500
H1288       H  0.63064853  0.80092075  0.52506515     0.13200
H1289       H  0.58199002  0.71381243  0.48037079     0.13300
C1290       C  0.62819197  0.70092305  0.47399841     0.62800
F1291       F  0.60110539  0.83676234  0.52472998    -0.22400
F1292       F  0.57481205  0.81655654  0.59814637    -0.19700
F1293       F  0.56798243  0.82054300  0.46983565    -0.19400
F1294       F  0.64293684  0.69384549  0.53580508    -0.19400
F1295       F  0.64072214  0.70179643  0.40816052    -0.19800
F1296       F  0.61196071  0.67906632  0.46475463    -0.22400
C1297       C  0.77898870  0.65298789  0.00680838    -0.05300
C1298       C  0.75507945  0.65582760  0.01643159     0.00700
C1299       C  0.74143873  0.63071458  0.02430277    -0.07900
C1300       C  0.75239413  0.60320335  0.02275284    -0.05300
C1301       C  0.77630302  0.60038168  0.01287543     0.00600
C1302       C  0.78992756  0.62548816  0.00526924    -0.07800
C1303       C  0.81591671  0.62301671  0.99728124     0.62500
H1304       H  0.78895167  0.67262388  0.00087469     0.13200
H1305       H  0.74244148  0.58355551  0.02862052     0.13300
C1306       C  0.71543181  0.63313603  0.03233082     0.62800
F1307       F  0.82602907  0.65004903  0.99088258    -0.22400
F1308       F  0.82069168  0.60698712  0.93235524    -0.19700
F1309       F  0.82585798  0.60931042  0.06121227    -0.19400
F1310       F  0.70551976  0.64766200  0.96964852    -0.19400
F1311       F  0.71064662  0.64831581  0.09862833    -0.19800
F1312       F  0.70525628  0.60604656  0.03618372    -0.22400
C1313       C  0.78132935  0.88282951  0.03421099    -0.05300
C1314       C  0.76745015  0.90642676  0.00943317     0.00700
C1315       C  0.74372259  0.90217108  0.98960096    -0.07900
C1316       C  0.73475700  0.87383219  0.99193818    -0.05300
C1317       C  0.74865963  0.85014950  0.01608802     0.00600
C1318       C  0.77226184  0.85458307  0.03841737    -0.07800
C1319       C  0.78776274  0.82955459  0.06589269     0.62500
H1320       H  0.79930910  0.88691150  0.05073521     0.13200
H1321       H  0.71675183  0.86984975  0.97559217     0.13300
C1322       C  0.72794793  0.92775202  0.96873185     0.62800
F1323       F  0.81060512  0.83805192  0.07743551    -0.22400
F1324       F  0.78713051  0.80735360  0.01196043    -0.19700
F1325       F  0.78026906  0.81917734  0.13482352    -0.19400
F1326       F  0.73435087  0.93972208  0.90025571    -0.19400
F1327       F  0.72962032  0.94868888  0.02606022    -0.19800
F1328       F  0.70496825  0.91951816  0.96032084    -0.22400
C1329       C  0.70180859  0.73174897  0.80295993    -0.05300
C1330       C  0.71845102  0.74858007  0.84406553     0.00700
C1331       C  0.73773081  0.75786429  0.80167460    -0.07900
C1332       C  0.73554387  0.75798737  0.72077175    -0.05300
C1333       C  0.71645101  0.74597301  0.67920077     0.00600
C1334       C  0.70121556  0.72864931  0.72233786    -0.07800
C1335       C  0.68526354  0.70476451  0.69073740     0.62500
H1336       H  0.69014372  0.71853834  0.83449476     0.13200
H1337       H  0.75014064  0.76553950  0.68973850     0.13300
C1338       C  0.76182123  0.76542736  0.83474248     0.62800
F1339       F  0.69065432  0.67908105  0.72895990    -0.22400
F1340       F  0.68711026  0.69907515  0.61361474    -0.19700
F1341       F  0.66247215  0.71205423  0.70431303    -0.19400
F1342       F  0.76485635  0.76129557  0.91271034    -0.19400
F1343       F  0.76666596  0.79407524  0.81803013    -0.19800
F1344       F  0.77803419  0.74782173  0.80026022    -0.22400
C1345       C  0.70072128  0.76765114  0.30270329    -0.05300
C1346       C  0.71782338  0.75134131  0.34385523     0.00700
C1347       C  0.73778061  0.74314618  0.30234380    -0.07900
C1348       C  0.73595807  0.74297206  0.22148918    -0.05300
C1349       C  0.71656203  0.75428890  0.17946749     0.00600
C1350       C  0.70039323  0.77091382  0.22228178    -0.07800
C1351       C  0.68359736  0.79421334  0.19075416     0.62500
H1352       H  0.68841126  0.78034165  0.33421499     0.13200
H1353       H  0.75098744  0.73596690  0.19095318     0.13300
C1354       C  0.76211821  0.73688551  0.33634277     0.62800
F1355       F  0.68820414  0.82017941  0.22879549    -0.22400
F1356       F  0.66108521  0.78639744  0.20487140    -0.19700
F1357       F  0.68504134  0.79957651  0.11347247    -0.19400
F1358       F  0.76832092  0.70841165  0.32021846    -0.19400
F1359       F  0.76475560  0.74157053  0.41430237    -0.19800
F1360       F  0.77764051  0.75504070  0.30219152    -0.22400
C1361       C  0.62082917  0.77111564  0.97536210    -0.05300
C1362       C  0.63136963  0.74523786  0.00151504     0.00700
C1363       C  0.61747788  0.72196687  0.02422501    -0.07900
C1364       C  0.59323628  0.72575730  0.02208230    -0.05300
C1365       C  0.58241421  0.75196509  0.99768021     0.00600
C1366       C  0.59654859  0.77506918  0.97270272    -0.07800
C1367       C  0.58649345  0.80395686  0.94439041     0.62500
H1368       H  0.63204010  0.78835691  0.95758288     0.13200
H1369       H  0.58251496  0.70801594  0.03981012     0.13300
C1370       C  0.62824164  0.69310648  0.04932622     0.62800
F1371       F  0.60362941  0.82381704  0.92968909    -0.22400
F1372       F  0.57269795  0.81606245  0.99937309    -0.19700
F1373       F  0.57350097  0.79972462  0.87680404    -0.19400
F1374       F  0.64039352  0.69651933  0.11875491    -0.19400
F1375       F  0.64319658  0.68317760  0.99469871    -0.19800
F1376       F  0.61160537  0.67203901  0.05852707    -0.22400
loop_ 
_geom_bond_atom_site_label_1 
_geom_bond_atom_site_label_2 
_geom_bond_distance 
_geom_bond_site_symmetry_2 
_ccdc_geom_bond_type 
C1            C3   1.541       .  S
C1            C5   1.536       .  S
C1            C4   1.556       .  S
C1          C642   1.548       .  S
C2            C6   1.536       .  S
C2            C8   1.549       .  S
C2            C7   1.540       .  S
C2          C661   1.545       .  S
C3           C11   1.381       .  A
C3            C6   1.392   1_556  A
C4           C15   1.384       .  A
C4            C7   1.400   1_556  A
C5           C19   1.378       .  A
C5            C8   1.399   1_556  A
C6            C9   1.378       .  A
C7           C13   1.377       .  A
C8           C16   1.386       .  A
C9           N10   1.356       .  A
C9           H22   1.082       .  S
N10          C11   1.358   1_554  A
N10         C629   1.437       .  S
C11          H12   1.081       .  S
C13          N14   1.355       .  A
C13          H23   1.079       .  S
N14          C15   1.358   1_554  A
N14         C674   1.438       .  S
C15          H21   1.082       .  S
C16          N17   1.356       .  A
C16          H18   1.081       .  S
N17          C19   1.353   1_554  A
N17         C610   1.436       .  S
C19          H20   1.083       .  S
C24          C26   1.528       .  S
C24          C28   1.535       .  S
C24          C27   1.553       .  S
C24         C658   1.545       .  S
C25          C29   1.550       .  S
C25          C31   1.537       .  S
C25          C30   1.543       .  S
C25         C645   1.548       .  S
C26          C34   1.371       .  A
C26          C29   1.396       .  A
C27          C38   1.383       .  A
C27          C30   1.402       .  A
C28          C42   1.377       .  A
C28          C31   1.393       .  A
C29          C32   1.386       .  A
C30          C36   1.378       .  A
C31          C39   1.377       .  A
C32          N33   1.357       .  A
C32          H45   1.082       .  S
N33          C34   1.350       .  A
N33         C578   1.431       .  S
C34          H35   1.082       .  S
C36          N37   1.355       .  A
C36          H46   1.080       .  S
N37          C38   1.356       .  A
N37         C594   1.436       .  S
C38          H44   1.082       .  S
C39          N40   1.356       .  A
C39          H41   1.082       .  S
N40          C42   1.355       .  A
N40         C562   1.431       .  S
C42          H43   1.082       .  S
C47          C49   1.536       .  S
C47          C50   1.548   1_545  S
C47         C533   1.548       .  S
C47         C739   1.546   1_545  S
C48          C52   1.542       .  S
C48          C53   1.553   1_545  S
C48         C514   1.547   1_545  S
C48         C742   1.534   1_545  S
C49          C57   1.377       .  A
C49          C52   1.394   1_554  A
C50          C53   1.403   1_554  A
C50         C749   1.383       .  A
C51         C735   1.546       .  S
C51          C65   1.383       .  A
C51          C54   1.394   1_554  A
C52          C55   1.382       .  A
C53         C747   1.381       .  A
C54         C736   1.534       .  S
C54          C62   1.378       .  A
C55          N56   1.359   1_556  A
C55          H68   1.080       .  S
N56          C57   1.354       .  A
N56         C613   1.436       .  S
C57          H58   1.083       .  S
C59         C741   1.381       .  A
C59          N60   1.354   1_556  A
C59          H69   1.081       .  S
N60          C61   1.358       .  A
N60         C546   1.436       .  S
C61         C738   1.383       .  A
C61          H67   1.081       .  S
C62          N63   1.355   1_556  A
C62          H64   1.083       .  S
N63          C65   1.355       .  A
N63         C626   1.436       .  S
C65          H66   1.082       .  S
C70          C72   1.548   1_565  S
C70          C73   1.543       .  S
C70         C517   1.547       .  S
C70         C762   1.535       .  S
C71          C75   1.533   1_565  S
C71          C76   1.550       .  S
C71         C530   1.546   1_565  S
C71         C765   1.538       .  S
C72          C80   1.382       .  A
C72          C75   1.396       .  A
C73          C76   1.400       .  A
C73         C772   1.380       .  A
C74         C758   1.535       .  S
C74          C88   1.373       .  A
C74          C77   1.395       .  A
C75          C78   1.376       .  A
C76         C770   1.378       .  A
C77         C759   1.538       .  S
C77          C85   1.379       .  A
C78          N79   1.353       .  A
C78          H91   1.082       .  S
N79          C80   1.355       .  A
N79         C565   1.431       .  S
C80          H81   1.082       .  S
C82         C764   1.378       .  A
C82          N83   1.354       .  A
C82          H92   1.082       .  S
N83          C84   1.356       .  A
N83         C501   1.434       .  S
C84         C761   1.381       .  A
C84          H90   1.080       .  S
C85          N86   1.357       .  A
C85          H87   1.082       .  S
N86          C88   1.354       .  A
N86         C581   1.431       .  S
C88          H89   1.082       .  S
O93        Cu101   2.005       .  S
O93         C103   1.276   1_556  A
O94        Cu101   2.018       .  S
O94         C104   1.278   1_556  A
O95        Cu101   1.984       .  S
O95         C105   1.277       .  A
O96        Cu101   2.001   1_554  S
O96         C106   1.273       .  A
O97        Cu102   1.992       .  S
O97         C106   1.277       .  A
O98        Cu102   2.002   1_556  S
O98         C105   1.273       .  A
O99        Cu102   2.010       .  S
O99         C104   1.279       .  A
O100       Cu102   2.010       .  S
O100        C103   1.279       .  A
Cu101      Cu102   2.374   1_556  S
C103        C450   1.487       .  S
C104        C677   1.497   1_554  S
C105        C469   1.458       .  S
C106        C485   1.459       .  S
O107       Cu115   2.010       .  S
O107        C117   1.277       .  A
O108       Cu115   2.013       .  S
O108        C118   1.279       .  A
O109       Cu115   1.989       .  S
O109        C119   1.277       .  A
O110       Cu115   2.002       .  S
O110        C120   1.273       .  A
O111       Cu116   1.986       .  S
O111        C120   1.278       .  A
O112       Cu116   2.000       .  S
O112        C119   1.273       .  A
O113       Cu116   2.009       .  S
O113        C118   1.277       .  A
O114       Cu116   2.014       .  S
O114        C117   1.279       .  A
Cu115      Cu116   2.375       .  S
C117        C597   1.490       .  S
C118        C434   1.487       .  S
C119        C466   1.458       .  S
C120        C482   1.459       .  S
O121       Cu129   2.019   1_655  S
O121        C131   1.278       .  A
O122       Cu129   2.027       .  S
O122        C132   1.278       .  A
O123       Cu129   2.015   1_554  S
O123        C133   1.276       .  A
O124       Cu129   2.005       .  S
O124        C134   1.280       .  A
O125       Cu130   1.984   1_546  S
O125        C822   1.271       .  A
O126       Cu130   1.972       .  S
O126        C821   1.275       .  A
O127       Cu130   1.996       .  S
O127        C820   1.279   1_554  A
O128       Cu130   2.003   1_655  S
O128        C819   1.279   1_554  A
Cu129      Cu818   2.375   1_556  S
Cu130      Cu817   2.375   1_554  S
C131        O816   1.279   1_556  A
C131        C549   1.489       .  S
C132        O815   1.279   1_556  A
C132       C1074   1.488       .  S
C133        O814   1.275       .  A
C133        C421   1.459       .  S
C134        O813   1.271       .  A
C134        C402   1.456       .  S
O135       Cu143   2.007       .  S
O135        C833   1.274       .  A
O136       Cu143   1.995   1_565  S
O136        C834   1.278       .  A
O137       Cu143   1.997   1_655  S
O137        C835   1.278   1_545  A
O138       Cu143   2.005       .  S
O138        C836   1.275   1_545  A
O139       Cu144   2.023       .  S
O139        C148   1.281       .  A
O140       Cu144   2.026   1_655  S
O140        C147   1.279       .  A
O141       Cu144   1.997       .  S
O141        C146   1.273       .  A
O142       Cu144   1.975       .  S
O142        C145   1.276       .  A
Cu143      Cu832   2.371   1_545  S
Cu144      Cu831   2.371       .  S
C145        O823   1.274       .  A
C145        C405   1.458       .  S
C146        O824   1.278       .  A
C146        C418   1.459       .  S
C147        O825   1.278       .  A
C147        C498   1.494       .  S
C148        O826   1.275       .  A
C148       C1058   1.501       .  S
C149        C151   1.533       .  S
C149        C153   1.537       .  S
C149        C152   1.555       .  S
C149        C341   1.547       .  S
C150        C154   1.546       .  S
C150        C156   1.535       .  S
C150        C155   1.539       .  S
C150        C354   1.543       .  S
C151        C159   1.375       .  A
C151        C154   1.398   1_556  A
C152        C163   1.382       .  A
C152        C155   1.401   1_556  A
C153        C167   1.378       .  A
C153        C156   1.392   1_556  A
C154        C157   1.383       .  A
C155        C161   1.377       .  A
C156        C164   1.377       .  A
C157        N158   1.354   1_554  A
C157        H170   1.081       .  S
N158        C159   1.352       .  A
N158        C306   1.431       .  S
C159        H160   1.083       .  S
C161        N162   1.354       .  A
C161        H171   1.080       .  S
N162        C163   1.355   1_554  A
N162        C453   1.433       .  S
C163        H169   1.082       .  S
C164        N165   1.354   1_554  A
C164        H166   1.083       .  S
N165        C167   1.357       .  A
N165        C322   1.432       .  S
C167        H168   1.081       .  S
C172        C174   1.540       .  S
C172        C176   1.532       .  S
C172        C175   1.554       .  S
C172        C357   1.545       .  S
C173        C177   1.538       .  S
C173        C179   1.551       .  S
C173        C178   1.541       .  S
C173        C338   1.548       .  S
C174        C182   1.383       .  A
C174        C177   1.392       .  A
C175        C186   1.381       .  A
C175        C178   1.400       .  A
C176        C190   1.376       .  A
C176        C179   1.399       .  A
C177        C180   1.377       .  A
C178        C184   1.380       .  A
C179        C187   1.386       .  A
C180        N181   1.356       .  A
C180        H193   1.082       .  S
N181        C182   1.359       .  A
N181        C277   1.438       .  S
C182        H183   1.081       .  S
C184        N185   1.356       .  A
C184        H194   1.081       .  S
N185        C186   1.354       .  A
N185        C437   1.434       .  S
C186        H192   1.082       .  S
C187        N188   1.355       .  A
C187        H189   1.082       .  S
N188        C190   1.350       .  A
N188        C290   1.432       .  S
C190        H191   1.083       .  S
C195        C197   1.549       .  S
C195        C198   1.546       .  S
C195        C261   1.547       .  S
C195        C887   1.530       .  S
C196        C200   1.551       .  S
C196        C201   1.542       .  S
C196        C242   1.545       .  S
C196        C890   1.529       .  S
C197        C205   1.383       .  A
C197        C200   1.412   1_554  A
C198        C209   1.380       .  A
C198        C201   1.399   1_554  A
C199        C883   1.531       .  S
C199        C213   1.378       .  A
C199        C202   1.385   1_554  A
C200        C203   1.384       .  A
C201        C207   1.379       .  A
C202        C884   1.529       .  S
C202        C210   1.377       .  A
C203        N204   1.351       .  A
C203        H216   1.082       .  S
N204        C205   1.349   1_556  A
N204        C325   1.431       .  S
C205        H206   1.081       .  S
C207        N896   1.357       .  A
C207        H217   1.081       .  S
N208        C895   1.357       .  A
N208        C897   1.358   1_556  A
N208        C389   1.438       .  S
C209        N896   1.358   1_554  A
C209        H903   1.081       .  S
C210        N211   1.355       .  A
C210        H212   1.083       .  S
N211        C213   1.357   1_556  A
N211        C309   1.433       .  S
C213        H214   1.082       .  S
H215        C897   1.082       .  S
C218        C220   1.547       .  S
C218        C221   1.553       .  S
C218        C245   1.547       .  S
C218        C910   1.531       .  S
C219        C223   1.539       .  S
C219        C224   1.553       .  S
C219        C258   1.544       .  S
C219        C913   1.530       .  S
C220        C228   1.381       .  A
C220        C223   1.399       .  A
C221        C232   1.384       .  A
C221        C224   1.407       .  A
C222        C906   1.531       .  S
C222        C236   1.379       .  A
C222        C225   1.385       .  A
C223        C226   1.377       .  A
C224        C230   1.386       .  A
C225        C907   1.530       .  S
C225        C233   1.377       .  A
C226        N227   1.355       .  A
C226        H239   1.082       .  S
N227        C228   1.358       .  A
N227        C293   1.435       .  S
C228        H229   1.081       .  S
C230        N919   1.355       .  A
C230        H240   1.082       .  S
N231        C918   1.355   1_565  A
N231        C920   1.354   1_565  A
N231        C373   1.442       .  S
C232        N919   1.354       .  A
C232        H238   1.079       .  S
C233        N234   1.356       .  A
C233        H235   1.083       .  S
N234        C236   1.358       .  A
N234        C274   1.435       .  S
C236        H237   1.082       .  S
C241        C242   1.407       .  A
C241        C246   1.408       .  A
C241        H248   1.081       .  S
C242        C931   1.430       .  A
C243        C250   1.524       .  S
C243        C244   1.409       .  A
C243        C930   1.429       .  A
C244        C933   1.409       .  A
C244        H249   1.081       .  S
C245        C246   1.428       .  A
C245        C932   1.409       .  A
C246        C247   1.520       .  S
C247        F251   1.384       .  S
C247        F252   1.376       .  S
C247        F253   1.382       .  S
C250        F254   1.375       .  S
C250        F255   1.383       .  S
C250        F256   1.384       .  S
C257        C262   1.407       .  A
C257        C946   1.407       .  A
C257        H264   1.081       .  S
C258        C259   1.430       .  A
C258        C945   1.407       .  A
C259        C266   1.525       .  S
C259        C260   1.409       .  A
C260        C261   1.409       .  A
C260        H265   1.081       .  S
C261        C950   1.428       .  A
C262        C263   1.519       .  S
C262        C949   1.427       .  A
C263        F267   1.384       .  S
C263        F269   1.376       .  S
C263        F956   1.383       .  S
C266        F270   1.383       .  S
C266        F272   1.384       .  S
C266        F959   1.375       .  S
F268        C951   1.383       .  S
F271        C954   1.375       .  S
C273        C274   1.399       .  A
C273        C278   1.406       .  A
C273        H280   1.083       .  S
C274        C275   1.413       .  A
C275        C282   1.515       .  S
C275        C276   1.410       .  A
C276        C277   1.403       .  A
C276        H281   1.083       .  S
C277        C278   1.417       .  A
C278        C279   1.517       .  S
C279        F283   1.385       .  S
C279        F284   1.382       .  S
C279        F285   1.381       .  S
C282        F286   1.382       .  S
C282        F287   1.384       .  S
C282        F288   1.384       .  S
C289        C290   1.398       .  A
C289        C294   1.405       .  A
C289        H296   1.083       .  S
C290        C291   1.412       .  A
C291        C298   1.514       .  S
C291        C292   1.407       .  A
C292        C293   1.400       .  A
C292        H297   1.083       .  S
C293        C294   1.416       .  A
C294        C295   1.514       .  S
C295        F299   1.385       .  S
C295        F300   1.377       .  S
C295        F301   1.381       .  S
C298        F302   1.383       .  S
C298        F303   1.383       .  S
C298        F304   1.384       .  S
C305        C306   1.399   1_554  A
C305        C310   1.403       .  A
C305        H312   1.083       .  S
C306        C307   1.413       .  A
C307        C314   1.516       .  S
C307        C308   1.409       .  A
C308        C309   1.403       .  A
C308        H313   1.083       .  S
C309        C310   1.412   1_556  A
C310        C311   1.515       .  S
C311        F315   1.384       .  S
C311        F316   1.382       .  S
C311        F317   1.383   1_554  S
C314        F318   1.383   1_556  S
C314        F319   1.382       .  S
C314        F320   1.384       .  S
C321        C322   1.403   1_554  A
C321        C326   1.408       .  A
C321        H328   1.082       .  S
C322        C323   1.412       .  A
C323        C330   1.516       .  S
C323        C324   1.404       .  A
C324        C325   1.400       .  A
C324        H329   1.082       .  S
C325        C326   1.412   1_556  A
C326        C327   1.516       .  S
C327        F331   1.384       .  S
C327        F332   1.383   1_554  S
C327        F333   1.382       .  S
C330        F334   1.382       .  S
C330        F335   1.383   1_556  S
C330        F336   1.384       .  S
C337        C338   1.409       .  A
C337        C342   1.407       .  A
C337        H344   1.080       .  S
C338        C339   1.432       .  A
C339        C346   1.526       .  S
C339        C340   1.410       .  A
C340        C341   1.408       .  A
C340        H345   1.079       .  S
C341        C342   1.429       .  A
C342        C343   1.526       .  S
C343        F347   1.384       .  S
C343        F348   1.383       .  S
C343        F349   1.376       .  S
C346        F350   1.384       .  S
C346        F351   1.375       .  S
C346        F352   1.384       .  S
C353        C354   1.409       .  A
C353        C358   1.408       .  A
C353        H360   1.080       .  S
C354        C355   1.430       .  A
C355        C362   1.527       .  S
C355        C356   1.407       .  A
C356        C357   1.409       .  A
C356        H361   1.079       .  S
C357        C358   1.428       .  A
C358        C359   1.524       .  S
C359        F363   1.384       .  S
C359        F364   1.375       .  S
C359        F365   1.383       .  S
C362        F366   1.375       .  S
C362        F367   1.384       .  S
C362        F368   1.384       .  S
C369        C374   1.409       .  A
C369       C1058   1.411       .  A
C369        H376   1.082       .  S
C370        C371   1.429   1_565  A
C370       C1057   1.411       .  A
C370        C836   1.502       .  S
C371        C378   1.522       .  S
C371        C372   1.410       .  A
C372        C373   1.399   1_545  A
C372        H377   1.082       .  S
C373       C1062   1.413       .  A
C374        C375   1.518       .  S
C374       C1061   1.414       .  A
C375        F379   1.385       .  S
C375        F380   1.381       .  S
C375        F381   1.383       .  S
C378        F382   1.383       .  S
C378        F383   1.384       .  S
C378        F384   1.385       .  S
C385        C386   1.404   1_545  A
C385        C390   1.400       .  A
C385        H392   1.083       .  S
C386       C1075   1.423       .  A
C386        C820   1.489       .  S
C387        C394   1.516       .  S
C387        C388   1.414       .  A
C387       C1074   1.423       .  A
C388       C1077   1.402       .  A
C388        H393   1.083       .  S
C389        C390   1.412   1_565  A
C389       C1076   1.403       .  A
C390        C391   1.514       .  S
C391        F395   1.384       .  S
C391        F396   1.379       .  S
C391        F397   1.376   1_556  S
C394        F398   1.383       .  S
C394        F399   1.380   1_556  S
C394        F400   1.385       .  S
C401        C402   1.399       .  A
C401        C406   1.398       .  A
C401        H408   1.085       .  S
C402       C1091   1.412   1_455  A
C403        C410   1.516       .  S
C403        C404   1.405       .  A
C403       C1090   1.412   1_655  A
C404       C1093   1.403   1_655  A
C404        H409   1.084       .  S
C405        C406   1.408       .  A
C405       C1092   1.403   1_455  A
C406        C407   1.509       .  S
C407        F411   1.383       .  S
C407        F412   1.384       .  S
C407        F413   1.383       .  S
C410        F414   1.383       .  S
C410        F415   1.383       .  S
C410        F416   1.385       .  S
C417        C422   1.402       .  A
C417       C1106   1.400       .  A
C417        H424   1.084       .  S
C418        C419   1.411   1_455  A
C418       C1105   1.400       .  A
C419        C426   1.516       .  S
C419        C420   1.402       .  A
C420        C421   1.400   1_655  A
C420        H425   1.083       .  S
C421       C1110   1.410       .  A
C422        C423   1.511       .  S
C422       C1109   1.410       .  A
C423        F427   1.385       .  S
C423        F428   1.383       .  S
C423        F429   1.383       .  S
C426        F430   1.381       .  S
C426        F431   1.384       .  S
C426        F432   1.383       .  S
C433        C434   1.408       .  A
C433        C438   1.408       .  A
C433        H440   1.083       .  S
C434        C435   1.423       .  A
C435        C442   1.519       .  S
C435        C436   1.406       .  A
C436        C437   1.398       .  A
C436        H441   1.083       .  S
C437        C438   1.409       .  A
C438        C439   1.515       .  S
C439        F443   1.385       .  S
C439        F444   1.382       .  S
C439        F445   1.383       .  S
C442        F446   1.382       .  S
C442        F447   1.383       .  S
C442        F448   1.385       .  S
C449        C450   1.408       .  A
C449        C454   1.406       .  A
C449        H456   1.083       .  S
C450        C451   1.424   1_554  A
C451        C458   1.520       .  S
C451        C452   1.407       .  A
C452        C453   1.398   1_556  A
C452        H457   1.083       .  S
C453        C454   1.409       .  A
C454        C455   1.516       .  S
C455        F459   1.384       .  S
C455        F460   1.383   1_554  S
C455        F461   1.382       .  S
C458        F462   1.385       .  S
C458        F463   1.383       .  S
C458        F464   1.382   1_556  S
C465        C466   1.399       .  A
C465        C470   1.399       .  A
C465        H472   1.083       .  S
C466        C467   1.412       .  A
C467        C474   1.515       .  S
C467        C468   1.402       .  A
C468        C469   1.401       .  A
C468        H473   1.085       .  S
C469        C470   1.411       .  A
C470        C471   1.514       .  S
C471        F475   1.384       .  S
C471        F476   1.384       .  S
C471        F477   1.383       .  S
C474        F478   1.383       .  S
C474        F479   1.383       .  S
C474        F480   1.384       .  S
C481        C482   1.401       .  A
C481        C486   1.404       .  A
C481        H488   1.083       .  S
C482        C483   1.409       .  A
C483        C490   1.513       .  S
C483        C484   1.397       .  A
C484        C485   1.399       .  A
C484        H489   1.083       .  S
C485        C486   1.410       .  A
C486        C487   1.512       .  S
C487        F491   1.383       .  S
C487        F492   1.384       .  S
C487        F493   1.383       .  S
C490        F494   1.384       .  S
C490        F495   1.383       .  S
C490        F496   1.383       .  S
C497        C502   1.403       .  A
C497       C1186   1.410   1_545  A
C497        H504   1.082       .  S
C498        C499   1.425       .  A
C498       C1185   1.410       .  A
C499        C506   1.519       .  S
C499        C500   1.412       .  A
C500        C501   1.400       .  A
C500        H505   1.083       .  S
C501       C1190   1.408       .  A
C502        C503   1.518       .  S
C502       C1189   1.408   1_545  A
C503        F507   1.384       .  S
C503        F508   1.383       .  S
C503        F509   1.382       .  S
C506        F510   1.383       .  S
C506        F511   1.381       .  S
C506        F512   1.385       .  S
C513        C518   1.409       .  A
C513       C1202   1.408       .  A
C513        H520   1.081       .  S
C514        C515   1.428   1_565  A
C514       C1201   1.409       .  A
C515        C522   1.524       .  S
C515        C516   1.410       .  A
C516        C517   1.410   1_545  A
C516        H521   1.080       .  S
C517       C1206   1.431       .  A
C518        C519   1.526       .  S
C518       C1205   1.430       .  A
C519        F523   1.384       .  S
C519        F525   1.376       .  S
C519       F1212   1.383       .  S
C522        F526   1.383       .  S
C522        F528   1.384   1_545  S
C522       F1215   1.377       .  S
F524       C1207   1.383       .  S
F527       C1210   1.377       .  S
C529        C530   1.409       .  A
C529        C534   1.409       .  A
C529        H536   1.080       .  S
C530       C1219   1.427   1_545  A
C531        C538   1.525       .  S
C531        C532   1.409       .  A
C531       C1218   1.427       .  A
C532       C1221   1.412       .  A
C532        H537   1.081       .  S
C533        C534   1.428       .  A
C533       C1220   1.412   1_545  A
C534        C535   1.522       .  S
C535        F539   1.384       .  S
C535        F540   1.376       .  S
C535        F541   1.383       .  S
C538        F542   1.376       .  S
C538        F543   1.383       .  S
C538        F544   1.385       .  S
C545        C546   1.400   1_556  A
C545        C550   1.411       .  A
C545        H552   1.083       .  S
C546       C1235   1.410       .  A
C547        C554   1.515       .  S
C547        C548   1.404       .  A
C547       C1234   1.410   1_545  A
C548       C1237   1.406   1_545  A
C548        H553   1.083       .  S
C549        C550   1.424       .  A
C549       C1236   1.406   1_556  A
C550        C551   1.519       .  S
C551        F555   1.385       .  S
C551        F556   1.382   1_556  S
C551        F557   1.383       .  S
C554        F558   1.379       .  S
C554        F559   1.383   1_554  S
C554        F560   1.385       .  S
C561        C562   1.400       .  A
C561        C566   1.405       .  A
C561        H568   1.083       .  S
C562        C563   1.414       .  A
C563        C570   1.515       .  S
C563        C564   1.405       .  A
C564        C565   1.399       .  A
C564        H569   1.083       .  S
C565        C566   1.413       .  A
C566        C567   1.515       .  S
C567        F571   1.385       .  S
C567        F572   1.383       .  S
C567        F573   1.382       .  S
C570        F574   1.382       .  S
C570        F575   1.382       .  S
C570        F576   1.385       .  S
C577        C578   1.400       .  A
C577        C582   1.406       .  A
C577        H584   1.083       .  S
C578        C579   1.413       .  A
C579        C586   1.516       .  S
C579        C580   1.405       .  A
C580        C581   1.399       .  A
C580        H585   1.083       .  S
C581        C582   1.413       .  A
C582        C583   1.516       .  S
C583        F587   1.384       .  S
C583        F588   1.383       .  S
C583        F589   1.382       .  S
C586        F590   1.382       .  S
C586        F591   1.383       .  S
C586        F592   1.384       .  S
C593        C594   1.398       .  A
C593        C598   1.409       .  A
C593        H600   1.083       .  S
C594        C595   1.412       .  A
C595        C602   1.517       .  S
C595        C596   1.407       .  A
C596        C597   1.407       .  A
C596        H601   1.083       .  S
C597        C598   1.424       .  A
C598        C599   1.519       .  S
C599        F603   1.385       .  S
C599        F604   1.383       .  S
C599        F605   1.383       .  S
C602        F606   1.382       .  S
C602        F607   1.382       .  S
C602        F608   1.384       .  S
C609        C610   1.401       .  A
C609        C614   1.407       .  A
C609        H616   1.082   1_554  S
C610        C611   1.414       .  A
C611        C618   1.516       .  S
C611        C612   1.409       .  A
C612        C613   1.402       .  A
C612        H617   1.082       .  S
C613        C614   1.413       .  A
C614        C615   1.515   1_554  S
C615        F619   1.385       .  S
C615        F620   1.382       .  S
C615        F621   1.383   1_556  S
C618        F622   1.383   1_554  S
C618        F623   1.382       .  S
C618        F624   1.385       .  S
C625        C626   1.401       .  A
C625        C630   1.408       .  A
C625        H632   1.083       .  S
C626        C627   1.413   1_554  A
C627        C634   1.516       .  S
C627        C628   1.408       .  A
C628        C629   1.401   1_556  A
C628        H633   1.083       .  S
C629        C630   1.417       .  A
C630        C631   1.517       .  S
C631        F635   1.385       .  S
C631        F636   1.383       .  S
C631        F637   1.382       .  S
C634        F638   1.382       .  S
C634        F639   1.384   1_556  S
C634        F640   1.384       .  S
C641        C642   1.408       .  A
C641        C646   1.410       .  A
C641        H648   1.080       .  S
C642        C643   1.431       .  A
C643        C650   1.525       .  S
C643        C644   1.410       .  A
C644        C645   1.408       .  A
C644        H649   1.081       .  S
C645        C646   1.431       .  A
C646        C647   1.525       .  S
C647        F651   1.384       .  S
C647        F652   1.375       .  S
C647        F653   1.383       .  S
C650        F654   1.376       .  S
C650        F655   1.383       .  S
C650        F656   1.384       .  S
C657        C658   1.408       .  A
C657        C662   1.409       .  A
C657        H664   1.080       .  S
C658        C659   1.431       .  A
C659        C666   1.526       .  S
C659        C660   1.408       .  A
C660        C661   1.408       .  A
C660        H665   1.081       .  S
C661        C662   1.431       .  A
C662        C663   1.526       .  S
C663        F667   1.384       .  S
C663        F668   1.383       .  S
C663        F669   1.376       .  S
C666        F670   1.383       .  S
C666        F671   1.376       .  S
C666        F672   1.384       .  S
C673        C674   1.400   1_556  A
C673        C678   1.410       .  A
C673        H680   1.082       .  S
C674        C675   1.411       .  A
C675        C682   1.517       .  S
C675        C676   1.406       .  A
C676        C677   1.410   1_554  A
C676        H681   1.082       .  S
C677        C678   1.426       .  A
C678        C679   1.519       .  S
C679        F683   1.385       .  S
C679        F684   1.382       .  S
C679        F685   1.383       .  S
C682        F686   1.381       .  S
C682        F687   1.383   1_554  S
C682        F688   1.385       .  S
C689        C691   1.541       .  S
C689        C693   1.536       .  S
C689        C692   1.556       .  S
C689       C1330   1.548       .  S
C690        C694   1.536       .  S
C690        C696   1.549       .  S
C690        C695   1.540       .  S
C690       C1349   1.545       .  S
C691        C699   1.381       .  A
C691        C694   1.392   1_556  A
C692        C703   1.384       .  A
C692        C695   1.400   1_556  A
C693        C707   1.377       .  A
C693        C696   1.399   1_556  A
C694        C697   1.378       .  A
C695        C701   1.377       .  A
C696        C704   1.386       .  A
C697        N698   1.356       .  A
C697        H710   1.082       .  S
N698        C699   1.358   1_554  A
N698       C1317   1.437       .  S
C699        H700   1.081       .  S
C701        N702   1.355       .  A
C701        H711   1.079       .  S
N702        C703   1.358   1_554  A
N702       C1362   1.438       .  S
C703        H709   1.082       .  S
C704        N705   1.356       .  A
C704        H706   1.081       .  S
N705        C707   1.353   1_554  A
N705       C1298   1.435       .  S
C707        H708   1.083       .  S
C712        C714   1.527       .  S
C712        C716   1.535       .  S
C712        C715   1.553       .  S
C712       C1346   1.545       .  S
C713        C717   1.550       .  S
C713        C719   1.537       .  S
C713        C718   1.544       .  S
C713       C1333   1.548       .  S
C714        C722   1.371       .  A
C714        C717   1.396       .  A
C715        C726   1.383       .  A
C715        C718   1.403       .  A
C716        C730   1.377       .  A
C716        C719   1.393       .  A
C717        C720   1.386       .  A
C718        C724   1.378       .  A
C719        C727   1.377       .  A
C720        N721   1.357       .  A
C720        H733   1.082       .  S
N721        C722   1.350       .  A
N721       C1266   1.430       .  S
C722        H723   1.082       .  S
C724        N725   1.355       .  A
C724        H734   1.080       .  S
N725        C726   1.356       .  A
N725       C1282   1.435       .  S
C726        H732   1.081       .  S
C727        N728   1.356       .  A
C727        H729   1.082       .  S
N728        C730   1.355       .  A
N728       C1250   1.431       .  S
C730        H731   1.082       .  S
C735        C737   1.536       .  S
C735        C738   1.548       .  S
C735       C1221   1.548       .  S
C736        C740   1.542       .  S
C736        C741   1.553       .  S
C736       C1202   1.547       .  S
C737        C745   1.377       .  A
C737        C740   1.394   1_554  A
C738        C741   1.403   1_554  A
C739        C753   1.383       .  A
C739        C742   1.394   1_554  A
C740        C743   1.382       .  A
C742        C750   1.378       .  A
C743        N744   1.359   1_556  A
C743        H756   1.080       .  S
N744        C745   1.354       .  A
N744       C1301   1.435       .  S
C745        H746   1.083       .  S
C747        N748   1.354   1_556  A
C747        H757   1.081       .  S
N748        C749   1.358       .  A
N748       C1234   1.436       .  S
C749        H755   1.081       .  S
C750        N751   1.355   1_556  A
C750        H752   1.083       .  S
N751        C753   1.355       .  A
N751       C1314   1.435       .  S
C753        H754   1.082       .  S
C758        C760   1.548       .  S
C758        C761   1.543       .  S
C758       C1205   1.547       .  S
C759        C763   1.533       .  S
C759        C764   1.549       .  S
C759       C1218   1.546       .  S
C760        C768   1.382       .  A
C760        C763   1.396       .  A
C761        C764   1.400       .  A
C762        C776   1.373       .  A
C762        C765   1.395       .  A
C763        C766   1.376       .  A
C765        C773   1.379       .  A
C766        N767   1.353       .  A
C766        H779   1.082       .  S
N767        C768   1.355       .  A
N767       C1253   1.431       .  S
C768        H769   1.082       .  S
C770        N771   1.354       .  A
C770        H780   1.082       .  S
N771        C772   1.355       .  A
N771       C1189   1.434       .  S
C772        H778   1.080   1_565  S
C773        N774   1.357       .  A
C773        H775   1.082       .  S
N774        C776   1.353       .  A
N774       C1269   1.430       .  S
C776        H777   1.082       .  S
O781       Cu789   2.006       .  S
O781        C791   1.277   1_556  A
O782       Cu789   2.017       .  S
O782        C792   1.277   1_556  A
O783       Cu789   1.983       .  S
O783        C793   1.277       .  A
O784       Cu789   2.000   1_554  S
O784        C794   1.273       .  A
O785       Cu790   1.993       .  S
O785        C794   1.278       .  A
O786       Cu790   2.003   1_556  S
O786        C793   1.274       .  A
O787       Cu790   2.010       .  S
O787        C792   1.279       .  A
O788       Cu790   2.010       .  S
O788        C791   1.279       .  A
Cu789      Cu790   2.373   1_556  S
C791       C1138   1.487       .  S
C792       C1365   1.497   1_554  S
C793       C1157   1.458       .  S
C794       C1173   1.459       .  S
O795       Cu803   2.011       .  S
O795        C805   1.277       .  A
O796       Cu803   2.014       .  S
O796        C806   1.279       .  A
O797       Cu803   1.988       .  S
O797        C807   1.277       .  A
O798       Cu803   2.000       .  S
O798        C808   1.273       .  A
O799       Cu804   1.986       .  S
O799        C808   1.278       .  A
O800       Cu804   2.000       .  S
O800        C807   1.274       .  A
O801       Cu804   2.008       .  S
O801        C806   1.277       .  A
O802       Cu804   2.013       .  S
O802        C805   1.279       .  A
Cu803      Cu804   2.375       .  S
C805       C1285   1.490       .  S
C806       C1122   1.488       .  S
C807       C1154   1.458       .  S
C808       C1170   1.459       .  S
O809       Cu817   2.020   1_655  S
O809        C819   1.278       .  A
O810       Cu817   2.027       .  S
O810        C820   1.278       .  A
O811       Cu817   2.015   1_554  S
O811        C821   1.276       .  A
O812       Cu817   2.005       .  S
O812        C822   1.279   1_565  A
O813       Cu818   1.983   1_556  S
O814       Cu818   1.971       .  S
O815       Cu818   1.996       .  S
O816       Cu818   2.003   1_655  S
C819       C1237   1.490   1_556  S
C821       C1109   1.459       .  S
C822       C1090   1.457       .  S
O823       Cu831   2.007       .  S
O824       Cu831   1.995       .  S
O825       Cu831   1.996   1_655  S
O826       Cu831   2.005       .  S
O827       Cu832   2.023       .  S
O827        C836   1.281       .  A
O828       Cu832   2.027   1_655  S
O828        C835   1.279       .  A
O829       Cu832   1.996       .  S
O829        C834   1.273       .  A
O830       Cu832   1.975   1_545  S
O830        C833   1.276       .  A
C833       C1093   1.458       .  S
C834       C1106   1.459       .  S
C835       C1186   1.495       .  S
C837        C839   1.532       .  S
C837        C841   1.537       .  S
C837        C840   1.555       .  S
C837       C1029   1.546       .  S
C838        C842   1.546       .  S
C838        C844   1.535       .  S
C838        C843   1.539       .  S
C838       C1042   1.544       .  S
C839        C847   1.375       .  A
C839        C842   1.398   1_556  A
C840        C851   1.382       .  A
C840        C843   1.401   1_556  A
C841        C855   1.378       .  A
C841        C844   1.392   1_556  A
C842        C845   1.383       .  A
C843        C849   1.377       .  A
C844        C852   1.377       .  A
C845        N846   1.354   1_554  A
C845        H858   1.081       .  S
N846        C847   1.352       .  A
N846        C994   1.430       .  S
C847        H848   1.083       .  S
C849        N850   1.354       .  A
C849        H859   1.080       .  S
N850        C851   1.355   1_554  A
N850       C1141   1.433       .  S
C851        H857   1.082       .  S
C852        N853   1.355   1_554  A
C852        H854   1.083       .  S
N853        C855   1.357       .  A
N853       C1010   1.433       .  S
C855        H856   1.081       .  S
C860        C862   1.540       .  S
C860        C864   1.532       .  S
C860        C863   1.554       .  S
C860       C1045   1.546       .  S
C861        C865   1.538       .  S
C861        C867   1.550       .  S
C861        C866   1.542       .  S
C861       C1026   1.548       .  S
C862        C870   1.383       .  A
C862        C865   1.392       .  A
C863        C874   1.381       .  A
C863        C866   1.400       .  A
C864        C878   1.376       .  A
C864        C867   1.399       .  A
C865        C868   1.377       .  A
C866        C872   1.381       .  A
C867        C875   1.386       .  A
C868        N869   1.356       .  A
C868        H881   1.082       .  S
N869        C870   1.359       .  A
N869        C965   1.438       .  S
C870        H871   1.081       .  S
C872        N873   1.356       .  A
C872        H882   1.081       .  S
N873        C874   1.354       .  A
N873       C1125   1.434       .  S
C874        H880   1.082       .  S
C875        N876   1.355       .  A
C875        H877   1.082       .  S
N876        C878   1.350       .  A
N876        C978   1.432       .  S
C878        H879   1.083       .  S
C883        C885   1.549   1_545  S
C883        C886   1.546       .  S
C883        C949   1.547       .  S
C884        C888   1.550   1_545  S
C884        C889   1.542       .  S
C884        C930   1.545       .  S
C885        C893   1.383       .  A
C885        C888   1.412   1_554  A
C886        C897   1.381   1_545  A
C886        C889   1.399   1_554  A
C887        C901   1.378       .  A
C887        C890   1.386   1_554  A
C888        C891   1.383       .  A
C889        C895   1.380   1_545  A
C890        C898   1.377       .  A
C891        N892   1.351       .  A
C891        H904   1.082       .  S
N892        C893   1.349   1_556  A
N892       C1013   1.431       .  S
C893        H894   1.081       .  S
C895        H905   1.081       .  S
N896       C1077   1.437       .  S
C898        N899   1.355       .  A
C898        H900   1.083       .  S
N899        C901   1.357   1_556  A
N899        C997   1.432       .  S
C901        H902   1.082       .  S
C906        C908   1.547   1_545  S
C906        C909   1.554       .  S
C906        C933   1.547       .  S
C907        C911   1.539   1_545  S
C907        C912   1.553       .  S
C907        C946   1.544       .  S
C908        C916   1.381       .  A
C908        C911   1.399       .  A
C909        C920   1.385       .  A
C909        C912   1.407       .  A
C910        C924   1.379       .  A
C910        C913   1.385       .  A
C911        C914   1.377       .  A
C912        C918   1.386       .  A
C913        C921   1.377       .  A
C914        N915   1.355       .  A
C914        H927   1.082       .  S
N915        C916   1.358       .  A
N915        C981   1.434       .  S
C916        H917   1.081       .  S
C918        H928   1.082   1_545  S
N919       C1061   1.442       .  S
C920        H926   1.079   1_545  S
C921        N922   1.356       .  A
C921        H923   1.083       .  S
N922        C924   1.358       .  A
N922        C962   1.435       .  S
C924        H925   1.082       .  S
C929        C930   1.407   1_565  A
C929        C934   1.408       .  A
C929        H936   1.081       .  S
C931        C938   1.523       .  S
C931        C932   1.409       .  A
C932        H937   1.081       .  S
C933        C934   1.428   1_545  A
C934        C935   1.521       .  S
C935        F939   1.384   1_565  S
C935        F940   1.376       .  S
C935        F941   1.382       .  S
C938        F942   1.375       .  S
C938        F943   1.383       .  S
C938        F944   1.384       .  S
C945        C950   1.408       .  A
C945        H952   1.081       .  S
C946        C947   1.430   1_545  A
C947        C954   1.525       .  S
C947        C948   1.409       .  A
C948        C949   1.410   1_565  A
C948        H953   1.081       .  S
C950        C951   1.520       .  S
C951        F955   1.384       .  S
C951        F957   1.376       .  S
C954        F958   1.383       .  S
C954        F960   1.384   1_565  S
C961        C962   1.399       .  A
C961        C966   1.405       .  A
C961        H968   1.083       .  S
C962        C963   1.413       .  A
C963        C970   1.515       .  S
C963        C964   1.410       .  A
C964        C965   1.403       .  A
C964        H969   1.083       .  S
C965        C966   1.417       .  A
C966        C967   1.517       .  S
C967        F971   1.385       .  S
C967        F972   1.381       .  S
C967        F973   1.381       .  S
C970        F974   1.382       .  S
C970        F975   1.384       .  S
C970        F976   1.384       .  S
C977        C978   1.398       .  A
C977        C982   1.405       .  A
C977        H984   1.083       .  S
C978        C979   1.412       .  A
C979        C986   1.514       .  S
C979        C980   1.407       .  A
C980        C981   1.401       .  A
C980        H985   1.083       .  S
C981        C982   1.416       .  A
C982        C983   1.514       .  S
C983        F987   1.385       .  S
C983        F988   1.377       .  S
C983        F989   1.381       .  S
C986        F990   1.383       .  S
C986        F991   1.383       .  S
C986        F992   1.384       .  S
C993        C994   1.399   1_554  A
C993        C998   1.403       .  A
C993       H1000   1.083       .  S
C994        C995   1.412       .  A
C995       C1002   1.516       .  S
C995        C996   1.408       .  A
C996        C997   1.403       .  A
C996       H1001   1.083       .  S
C997        C998   1.412   1_556  A
C998        C999   1.515       .  S
C999       F1003   1.384       .  S
C999       F1004   1.382       .  S
C999       F1005   1.383   1_554  S
C1002      F1006   1.383   1_556  S
C1002      F1007   1.382       .  S
C1002      F1008   1.384       .  S
C1009      C1010   1.403   1_554  A
C1009      C1014   1.408       .  A
C1009      H1016   1.082       .  S
C1010      C1011   1.412       .  A
C1011      C1018   1.516       .  S
C1011      C1012   1.404       .  A
C1012      C1013   1.400       .  A
C1012      H1017   1.083       .  S
C1013      C1014   1.412   1_556  A
C1014      C1015   1.516       .  S
C1015      F1019   1.384       .  S
C1015      F1020   1.383   1_554  S
C1015      F1021   1.382       .  S
C1018      F1022   1.382       .  S
C1018      F1023   1.383   1_556  S
C1018      F1024   1.384       .  S
C1025      C1026   1.410       .  A
C1025      C1030   1.407       .  A
C1025      H1032   1.080       .  S
C1026      C1027   1.432       .  A
C1027      C1034   1.526       .  S
C1027      C1028   1.410       .  A
C1028      C1029   1.408       .  A
C1028      H1033   1.079       .  S
C1029      C1030   1.429       .  A
C1030      C1031   1.526       .  S
C1031      F1035   1.384       .  S
C1031      F1036   1.383       .  S
C1031      F1037   1.376       .  S
C1034      F1038   1.384       .  S
C1034      F1039   1.375       .  S
C1034      F1040   1.384       .  S
C1041      C1042   1.409       .  A
C1041      C1046   1.408       .  A
C1041      H1048   1.080       .  S
C1042      C1043   1.429       .  A
C1043      C1050   1.526       .  S
C1043      C1044   1.407       .  A
C1044      C1045   1.409       .  A
C1044      H1049   1.079       .  S
C1045      C1046   1.428       .  A
C1046      C1047   1.524       .  S
C1047      F1051   1.384       .  S
C1047      F1052   1.374       .  S
C1047      F1053   1.383       .  S
C1050      F1054   1.375       .  S
C1050      F1055   1.383       .  S
C1050      F1056   1.384       .  S
C1057      C1062   1.409       .  A
C1057      H1064   1.082       .  S
C1058      C1059   1.429       .  A
C1059      C1066   1.522       .  S
C1059      C1060   1.410       .  A
C1060      C1061   1.399       .  A
C1060      H1065   1.082       .  S
C1062      C1063   1.518       .  S
C1063      F1067   1.385       .  S
C1063      F1068   1.381       .  S
C1063      F1069   1.383       .  S
C1066      F1070   1.383       .  S
C1066      F1071   1.384       .  S
C1066      F1072   1.385       .  S
C1073      C1074   1.404       .  A
C1073      C1078   1.400       .  A
C1073      H1080   1.083       .  S
C1075      C1082   1.517       .  S
C1075      C1076   1.415       .  A
C1076      H1081   1.083       .  S
C1077      C1078   1.412       .  A
C1078      C1079   1.514       .  S
C1079      F1083   1.384       .  S
C1079      F1084   1.379       .  S
C1079      F1085   1.376   1_556  S
C1082      F1086   1.383       .  S
C1082      F1087   1.380   1_556  S
C1082      F1088   1.385       .  S
C1089      C1090   1.399       .  A
C1089      C1094   1.398       .  A
C1089      H1096   1.085       .  S
C1091      C1098   1.516       .  S
C1091      C1092   1.405       .  A
C1092      H1097   1.084       .  S
C1093      C1094   1.408       .  A
C1094      C1095   1.509       .  S
C1095      F1099   1.383       .  S
C1095      F1100   1.384       .  S
C1095      F1101   1.383       .  S
C1098      F1102   1.383       .  S
C1098      F1103   1.383       .  S
C1098      F1104   1.385       .  S
C1105      C1110   1.402       .  A
C1105      H1112   1.084       .  S
C1106      C1107   1.411   1_455  A
C1107      C1114   1.516       .  S
C1107      C1108   1.402       .  A
C1108      C1109   1.400   1_655  A
C1108      H1113   1.083       .  S
C1110      C1111   1.511       .  S
C1111      F1115   1.384       .  S
C1111      F1116   1.383       .  S
C1111      F1117   1.383       .  S
C1114      F1118   1.381       .  S
C1114      F1119   1.384       .  S
C1114      F1120   1.383       .  S
C1121      C1122   1.408       .  A
C1121      C1126   1.408       .  A
C1121      H1128   1.083       .  S
C1122      C1123   1.423       .  A
C1123      C1130   1.519       .  S
C1123      C1124   1.406       .  A
C1124      C1125   1.398       .  A
C1124      H1129   1.083       .  S
C1125      C1126   1.409       .  A
C1126      C1127   1.515       .  S
C1127      F1131   1.385       .  S
C1127      F1132   1.382       .  S
C1127      F1133   1.383       .  S
C1130      F1134   1.382       .  S
C1130      F1135   1.383       .  S
C1130      F1136   1.385       .  S
C1137      C1138   1.408       .  A
C1137      C1142   1.406       .  A
C1137      H1144   1.083       .  S
C1138      C1139   1.424   1_554  A
C1139      C1146   1.520       .  S
C1139      C1140   1.407       .  A
C1140      C1141   1.398   1_556  A
C1140      H1145   1.083       .  S
C1141      C1142   1.410       .  A
C1142      C1143   1.516       .  S
C1143      F1147   1.384       .  S
C1143      F1148   1.383   1_554  S
C1143      F1149   1.382       .  S
C1146      F1150   1.385       .  S
C1146      F1151   1.383       .  S
C1146      F1152   1.383   1_556  S
C1153      C1154   1.400       .  A
C1153      C1158   1.399       .  A
C1153      H1160   1.084       .  S
C1154      C1155   1.412       .  A
C1155      C1162   1.515       .  S
C1155      C1156   1.402       .  A
C1156      C1157   1.401       .  A
C1156      H1161   1.085       .  S
C1157      C1158   1.411       .  A
C1158      C1159   1.514       .  S
C1159      F1163   1.383       .  S
C1159      F1164   1.384       .  S
C1159      F1165   1.383       .  S
C1162      F1166   1.383       .  S
C1162      F1167   1.383       .  S
C1162      F1168   1.384       .  S
C1169      C1170   1.401       .  A
C1169      C1174   1.404       .  A
C1169      H1176   1.083       .  S
C1170      C1171   1.409       .  A
C1171      C1178   1.513       .  S
C1171      C1172   1.397       .  A
C1172      C1173   1.399       .  A
C1172      H1177   1.083       .  S
C1173      C1174   1.410       .  A
C1174      C1175   1.512       .  S
C1175      F1179   1.383       .  S
C1175      F1180   1.384       .  S
C1175      F1181   1.383       .  S
C1178      F1182   1.384       .  S
C1178      F1183   1.383       .  S
C1178      F1184   1.383       .  S
C1185      C1190   1.403       .  A
C1185      H1192   1.082       .  S
C1186      C1187   1.426       .  A
C1187      C1194   1.519       .  S
C1187      C1188   1.412       .  A
C1188      C1189   1.400       .  A
C1188      H1193   1.083       .  S
C1190      C1191   1.518       .  S
C1191      F1195   1.384       .  S
C1191      F1196   1.383       .  S
C1191      F1197   1.381       .  S
C1194      F1198   1.383       .  S
C1194      F1199   1.381       .  S
C1194      F1200   1.385       .  S
C1201      C1206   1.409       .  A
C1201      H1208   1.081       .  S
C1202      C1203   1.429       .  A
C1203      C1210   1.525       .  S
C1203      C1204   1.410       .  A
C1204      C1205   1.410       .  A
C1204      H1209   1.080       .  S
C1206      C1207   1.526       .  S
C1207      F1211   1.384       .  S
C1207      F1213   1.376       .  S
C1210      F1214   1.383       .  S
C1210      F1216   1.384       .  S
C1217      C1218   1.409       .  A
C1217      C1222   1.409       .  A
C1217      H1224   1.080       .  S
C1219      C1226   1.525       .  S
C1219      C1220   1.409       .  A
C1220      H1225   1.081       .  S
C1221      C1222   1.428       .  A
C1222      C1223   1.522       .  S
C1223      F1227   1.384       .  S
C1223      F1228   1.376       .  S
C1223      F1229   1.383       .  S
C1226      F1230   1.376       .  S
C1226      F1231   1.383       .  S
C1226      F1232   1.385   1_565  S
C1233      C1234   1.400   1_556  A
C1233      C1238   1.412       .  A
C1233      H1240   1.083       .  S
C1235      C1242   1.515       .  S
C1235      C1236   1.404       .  A
C1236      H1241   1.083       .  S
C1237      C1238   1.424   1_554  A
C1238      C1239   1.519       .  S
C1239      F1243   1.385       .  S
C1239      F1244   1.382   1_556  S
C1239      F1245   1.383       .  S
C1242      F1246   1.379       .  S
C1242      F1247   1.383   1_554  S
C1242      F1248   1.385       .  S
C1249      C1250   1.400       .  A
C1249      C1254   1.405       .  A
C1249      H1256   1.083       .  S
C1250      C1251   1.413       .  A
C1251      C1258   1.515       .  S
C1251      C1252   1.405       .  A
C1252      C1253   1.399       .  A
C1252      H1257   1.083       .  S
C1253      C1254   1.413       .  A
C1254      C1255   1.515       .  S
C1255      F1259   1.385       .  S
C1255      F1260   1.383       .  S
C1255      F1261   1.382       .  S
C1258      F1262   1.382       .  S
C1258      F1263   1.382       .  S
C1258      F1264   1.385       .  S
C1265      C1266   1.400       .  A
C1265      C1270   1.406       .  A
C1265      H1272   1.083       .  S
C1266      C1267   1.413       .  A
C1267      C1274   1.516       .  S
C1267      C1268   1.405       .  A
C1268      C1269   1.399       .  A
C1268      H1273   1.083       .  S
C1269      C1270   1.413       .  A
C1270      C1271   1.516       .  S
C1271      F1275   1.384       .  S
C1271      F1276   1.383       .  S
C1271      F1277   1.382       .  S
C1274      F1278   1.382       .  S
C1274      F1279   1.383       .  S
C1274      F1280   1.384       .  S
C1281      C1282   1.398       .  A
C1281      C1286   1.408       .  A
C1281      H1288   1.083       .  S
C1282      C1283   1.412       .  A
C1283      C1290   1.517       .  S
C1283      C1284   1.407       .  A
C1284      C1285   1.408       .  A
C1284      H1289   1.083       .  S
C1285      C1286   1.424       .  A
C1286      C1287   1.519       .  S
C1287      F1291   1.385       .  S
C1287      F1292   1.383       .  S
C1287      F1293   1.383       .  S
C1290      F1294   1.382       .  S
C1290      F1295   1.382       .  S
C1290      F1296   1.384       .  S
C1297      C1298   1.401       .  A
C1297      C1302   1.407       .  A
C1297      H1304   1.082       .  S
C1298      C1299   1.414       .  A
C1299      C1306   1.516       .  S
C1299      C1300   1.408       .  A
C1300      C1301   1.402       .  A
C1300      H1305   1.082       .  S
C1301      C1302   1.412       .  A
C1302      C1303   1.515   1_554  S
C1303      F1307   1.385       .  S
C1303      F1308   1.382       .  S
C1303      F1309   1.383   1_556  S
C1306      F1310   1.383   1_554  S
C1306      F1311   1.382       .  S
C1306      F1312   1.385       .  S
C1313      C1314   1.401       .  A
C1313      C1318   1.408       .  A
C1313      H1320   1.083       .  S
C1314      C1315   1.413   1_554  A
C1315      C1322   1.516       .  S
C1315      C1316   1.407       .  A
C1316      C1317   1.401   1_556  A
C1316      H1321   1.083       .  S
C1317      C1318   1.417       .  A
C1318      C1319   1.517       .  S
C1319      F1323   1.385       .  S
C1319      F1324   1.383       .  S
C1319      F1325   1.382       .  S
C1322      F1326   1.382       .  S
C1322      F1327   1.384   1_556  S
C1322      F1328   1.384       .  S
C1329      C1330   1.409       .  A
C1329      C1334   1.410       .  A
C1329      H1336   1.080       .  S
C1330      C1331   1.430       .  A
C1331      C1338   1.525       .  S
C1331      C1332   1.410       .  A
C1332      C1333   1.409       .  A
C1332      H1337   1.081       .  S
C1333      C1334   1.431       .  A
C1334      C1335   1.525       .  S
C1335      F1339   1.384       .  S
C1335      F1340   1.375       .  S
C1335      F1341   1.383       .  S
C1338      F1342   1.376       .  S
C1338      F1343   1.383       .  S
C1338      F1344   1.384       .  S
C1345      C1346   1.407       .  A
C1345      C1350   1.409       .  A
C1345      H1352   1.080       .  S
C1346      C1347   1.431       .  A
C1347      C1354   1.526       .  S
C1347      C1348   1.408       .  A
C1348      C1349   1.408       .  A
C1348      H1353   1.081       .  S
C1349      C1350   1.431       .  A
C1350      C1351   1.526       .  S
C1351      F1355   1.384       .  S
C1351      F1356   1.383       .  S
C1351      F1357   1.376       .  S
C1354      F1358   1.383       .  S
C1354      F1359   1.376       .  S
C1354      F1360   1.385       .  S
C1361      C1362   1.400   1_556  A
C1361      C1366   1.410       .  A
C1361      H1368   1.082       .  S
C1362      C1363   1.411       .  A
C1363      C1370   1.517       .  S
C1363      C1364   1.407       .  A
C1364      C1365   1.410   1_554  A
C1364      H1369   1.082       .  S
C1365      C1366   1.426       .  A
C1366      C1367   1.520       .  S
C1367      F1371   1.385       .  S
C1367      F1372   1.382       .  S
C1367      F1373   1.383       .  S
C1370      F1374   1.381       .  S
C1370      F1375   1.383   1_554  S
C1370      F1376   1.385       .  S
