geometry optimzed in LAMMPS
_audit_creation_date              2020-11-30 
_audit_creation_method            'lammps2cif' 
_symmetry_space_group_name_H-M    'P1' 
_symmetry_Int_Tables_number       1 
_symmetry_cell_setting            triclinic 
loop_ 
_symmetry_equiv_pos_as_xyz 
  x,y,z 
_cell_length_a                    30.14945627 
_cell_length_b                    22.735874975147944 
_cell_length_c                    27.451282298633437 
_cell_angle_alpha                 90.96594846557487 
_cell_angle_beta                  80.01636845099027 
_cell_angle_gamma                 89.88508957616672 
loop_ 
_atom_site_label 
_atom_site_type_symbol 
_atom_site_fract_x 
_atom_site_fract_y 
_atom_site_fract_z 
_atom_site_charge 
O1          O  0.48938101  0.10049075  0.00898370    -0.70800
O2          O  0.07398474  0.96021635  0.98172590    -0.71700
O3          O  0.03670498  0.04437052  0.92382545    -0.60400
O4          O  0.02929687  0.01626396  0.07010569    -0.68800
O5          O  0.46575012  0.96188176  0.06631123    -0.68300
O6          O  0.47722346  0.98329186  0.91993793    -0.59600
O7          O  0.01477890  0.90246608  0.98321213    -0.72100
O8          O  0.43066549  0.04318879  0.00606581    -0.70900
Cu9        Cu  0.03503724  0.03238028  0.99704225     1.04600
Cu10       Cu  0.46953031  0.97072827  0.99311553     1.04300
C11         C  0.44682533  0.09407925  0.01266944     0.95400
C12         C  0.05741968  0.90891238  0.97815365     0.94600
C13         C  0.50767326  0.01656809  0.89688444     0.86700
C14         C  0.99743795  0.98477698  0.09284844     0.93000
N15         N  0.23511210  0.47545956  0.99662602    -0.01300
C16         C  0.22923304  0.42192234  0.01844320     0.01300
C17         C  0.19245273  0.39433903  0.00465862    -0.21600
C18         C  0.17798498  0.42905255  0.97010254    -0.21800
C19         C  0.20617431  0.47731957  0.96352172     0.01200
H20         H  0.18210950  0.34932515  0.01221577     0.15000
H21         H  0.15445646  0.41538766  0.94657195     0.15000
N22         N  0.26297647  0.52199398  0.00942798    -0.01300
C23         C  0.26890383  0.57568657  0.98791812     0.01300
C24         C  0.30571680  0.60308000  0.00187082    -0.21600
C25         C  0.32031671  0.56797347  0.03602336    -0.21800
C26         C  0.29211892  0.51975755  0.04230758     0.01200
H27         H  0.31618655  0.64808110  0.99448866     0.15000
H28         H  0.34396580  0.58128930  0.05955550     0.15000
O29         O  0.17732846  0.46112535  0.51837710    -0.70800
O30         O  0.26201674  0.59798934  0.48903110    -0.71700
O31         O  0.22267635  0.51562601  0.43090343    -0.60400
O32         O  0.21690324  0.54382671  0.57706626    -0.68800
O33         O  0.27454705  0.48261227  0.57480189    -0.68300
O34         O  0.28077402  0.45525513  0.42875213    -0.59600
O35         O  0.32004125  0.53775117  0.48766978    -0.72100
O36         O  0.23537121  0.40079689  0.51614372    -0.70900
Cu37       Cu  0.21769871  0.53170482  0.50390559     1.04600
Cu38       Cu  0.27969905  0.46708975  0.50181783     1.04300
C39         C  0.19282703  0.40923550  0.52190560     0.95400
C40         C  0.30454588  0.58950704  0.48348200     0.94600
C41         C  0.25285056  0.48178022  0.40654096     0.86700
C42         C  0.24460080  0.51668792  0.59921312     0.93000
N43         N  0.98522314  0.02437358  0.49035757    -0.01300
C44         C  0.97873100  0.07906721  0.51169373     0.01300
C45         C  0.94222420  0.10554470  0.49654085    -0.21600
C46         C  0.92850035  0.06854944  0.46205392    -0.21800
C47         C  0.95689024  0.02017968  0.45675345     0.01200
H48         H  0.93147697  0.15083745  0.50342526     0.15000
H49         H  0.90538582  0.08038911  0.43770028     0.15000
N50         N  0.51490348  0.97502082  0.49895849    -0.01300
C51         C  0.52113321  0.92123251  0.47578032     0.01300
C52         C  0.55903488  0.89487049  0.48799354    -0.21600
C53         C  0.57368476  0.93036505  0.52279922    -0.21800
C54         C  0.54456985  0.97792963  0.53119633     0.01200
H55         H  0.57018773  0.84995978  0.47945026     0.15000
H56         H  0.59802699  0.91760581  0.54536972     0.15000
C57         C  0.46562742  0.79169799  0.42209935     0.14900
C58         C  0.42346053  0.79064393  0.45328519     0.01800
C59         C  0.41091466  0.83794178  0.48624032     0.16800
C60         C  0.44125510  0.88330464  0.49083101     0.26200
C61         C  0.48476060  0.88301528  0.46185940    -0.40100
C62         C  0.49582243  0.83775079  0.42597587     0.33300
C63         C  0.39456270  0.73761489  0.45604562     0.01900
F64         F  0.37043252  0.83781280  0.51697004    -0.12400
F65         F  0.53696436  0.83638567  0.39655968    -0.13000
C66         C  0.40857226  0.68569937  0.47604000     0.16800
C67         C  0.37969003  0.63735207  0.48418692     0.26200
C68         C  0.33598052  0.63992576  0.47256269    -0.40100
C69         C  0.32247000  0.69165536  0.45129374     0.33200
C70         C  0.35146843  0.74004566  0.44331143     0.14900
F71         F  0.44963047  0.68281503  0.48986243    -0.12400
F72         F  0.28124465  0.69547505  0.43800049    -0.12900
F73         F  0.39396104  0.58895939  0.50545716    -0.15200
F74         F  0.33737049  0.78959027  0.42352064    -0.13800
F75         F  0.47828623  0.74674701  0.38943880    -0.13800
F76         F  0.42879646  0.92496727  0.52629681    -0.15200
C77         C  0.14769371  0.25544066  0.55352407     0.14900
C78         C  0.10344191  0.25991467  0.54431776     0.01800
C79         C  0.08789763  0.31438111  0.53046609     0.16800
C80         C  0.11646371  0.36316541  0.52437640     0.26200
C81         C  0.16144722  0.35852766  0.53192406    -0.40100
C82         C  0.17639587  0.30421973  0.54759040     0.33300
C83         C  0.07493352  0.20687730  0.54348075     0.01900
F84         F  0.04561552  0.31952088  0.52015869    -0.12400
F85         F  0.21892247  0.29796972  0.55688939    -0.13000
C86         C  0.03256126  0.20327391  0.57412323     0.16800
C87         C  0.00240908  0.15856592  0.56636298     0.26200
C88         C  0.01417821  0.11662358  0.52791442    -0.40100
C89         C  0.05786873  0.11824931  0.49966333     0.33200
C90         C  0.08788224  0.16277761  0.50743410     0.14900
F91         F  0.01974141  0.24451972  0.61016869    -0.12400
F92         F  0.07073882  0.07941060  0.46201899    -0.12900
F93         F  0.96090928  0.15766454  0.59498161    -0.15200
F94         F  0.12839904  0.16550509  0.47692931    -0.13800
F95         F  0.16332113  0.20342891  0.56751844    -0.13800
F96         F  0.10046444  0.41416599  0.50889563    -0.15200
C97         C  0.31429478  0.46082724  0.16395111     0.14900
C98         C  0.27105207  0.46396160  0.19296670     0.01800
C99         C  0.23390739  0.47454572  0.16969121     0.16800
C100        C  0.24020779  0.48882277  0.11968314     0.26200
C101        C  0.28380360  0.49024173  0.09116638    -0.40100
C102        C  0.32053609  0.47333213  0.11339356     0.33300
C103        C  0.26515722  0.46591381  0.24785852     0.01900
F104        F  0.19153812  0.47523520  0.19641475    -0.12400
F105        F  0.36295194  0.47295028  0.08682631    -0.13000
C106        C  0.24525595  0.51593660  0.27366438     0.16800
C107        C  0.24048568  0.52024388  0.32506389     0.26200
C108        C  0.25615911  0.47496361  0.35212041    -0.40100
C109        C  0.27626109  0.42476053  0.32633404     0.33200
C110        C  0.28055229  0.42021699  0.27463119     0.14900
F111        F  0.23179191  0.56196528  0.24878339    -0.12400
F112        F  0.29131545  0.37978581  0.35112364    -0.12900
F113        F  0.22210848  0.57012868  0.34806792    -0.15200
F114        F  0.29940469  0.37108207  0.25078435    -0.13800
F115        F  0.35092220  0.45071109  0.18528100    -0.13800
F116        F  0.20378067  0.50558104  0.10055587    -0.15200
C117        C  0.18404222  0.53529267  0.84143027     0.14900
C118        C  0.22731250  0.53261009  0.81257074     0.01800
C119        C  0.26443573  0.52211808  0.83582162     0.16800
C120        C  0.25815028  0.50858519  0.88601396     0.26200
C121        C  0.21450200  0.50664540  0.91448357    -0.40100
C122        C  0.17772376  0.52273830  0.89198503     0.33300
C123        C  0.23315160  0.53101411  0.75776261     0.01900
F124        F  0.30675566  0.52102247  0.80897896    -0.12400
F125        F  0.13522234  0.52243336  0.91830874    -0.13000
C126        C  0.22051866  0.57867235  0.73111996     0.16800
C127        C  0.22444719  0.57460071  0.67941631     0.26200
C128        C  0.24135012  0.52284020  0.65362909    -0.40100
C129        C  0.25419836  0.47550818  0.68059999     0.33200
C130        C  0.24999512  0.47952449  0.73197873     0.14900
F131        F  0.20477197  0.62919234  0.75513540    -0.12400
F132        F  0.26915722  0.42412520  0.65748624    -0.12900
F133        F  0.21233257  0.62148361  0.65459373    -0.15200
F134        F  0.26101188  0.43206238  0.75689765    -0.13800
F135        F  0.14751024  0.54508613  0.81986168    -0.13800
F136        F  0.29473806  0.49330730  0.90538567    -0.15200
C137        C  0.01822764  0.93546191  0.21830009     0.14900
C138        C  0.98287704  0.96429735  0.25027704     0.01800
C139        C  0.44789088  0.99570700  0.22599818     0.16800
C140        C  0.45181041  0.00022758  0.17469132     0.26200
C141        C  0.99273942  0.97710202  0.14667174    -0.40100
C142        C  0.02335910  0.94236911  0.16687316     0.33300
C143        C  0.97937915  0.96292190  0.30513120     0.01900
F144        F  0.41225352  0.02203800  0.25536606    -0.12400
F145        F  0.05787423  0.91471450  0.13674401    -0.13000
C146        C  0.01586021  0.98110594  0.32730572     0.16800
C147        C  0.00977579  0.99328813  0.37817255     0.26200
C148        C  0.96690645  0.98887053  0.40786338    -0.40100
C149        C  0.43271676  0.96369577  0.38396961     0.33200
C150        C  0.43859492  0.95120053  0.33306184     0.14900
F151        F  0.05645819  0.99264001  0.29917029    -0.12400
F152        F  0.39225884  0.95295142  0.41266882    -0.12900
F153        F  0.04508685  0.01465546  0.39715840    -0.15200
F154        F  0.40424346  0.92630397  0.31410278    -0.13800
F155        F  0.04766801  0.90055087  0.23681168    -0.13800
F156        F  0.41921328  0.02877523  0.15571893    -0.15200
C157        C  0.48756884  0.01659913  0.66168580     0.14900
C158        C  0.52481472  0.03052653  0.68396948     0.01800
C159        C  0.06501351  0.04576784  0.65778716     0.16800
C160        C  0.07044650  0.03357988  0.60681321     0.26200
C161        C  0.53610424  0.00699368  0.58109917    -0.40100
C162        C  0.49310058  0.00489119  0.61085828     0.33300
C163        C  0.52054909  0.02852242  0.73856534     0.01900
F164        F  0.10167991  0.05959943  0.67813434    -0.12400
F165        F  0.45682798  0.98675905  0.59192708    -0.13000
C166        C  0.50885118  0.97524644  0.76259720     0.16800
C167        C  0.50455039  0.97180501  0.81393305     0.26200
C168        C  0.51224324  0.02149968  0.84247707    -0.40100
C169        C  0.02549040  0.07818819  0.82303699     0.33200
C170        C  0.02845662  0.08342926  0.77161061     0.14900
F171        F  0.50250055  0.92596956  0.73603884    -0.12400
F172        F  0.03382066  0.12598946  0.85029424    -0.12900
F173        F  0.49424502  0.91915409  0.83560229    -0.15200
F174        F  0.03975126  0.13594303  0.75020369    -0.13800
F175        F  0.44617373  0.01040937  0.68984507    -0.13800
F176        F  0.11216991  0.03700570  0.57892491    -0.15200
C177        C  0.21427800  0.69781123  0.92752532     0.14900
C178        C  0.17201196  0.70209993  0.95843011     0.01800
C179        C  0.15915793  0.65845183  0.99361660     0.16800
C180        C  0.18943193  0.61406334  0.00060943     0.26200
C181        C  0.23305826  0.61211439  0.97218761    -0.40100
C182        C  0.24454004  0.65319142  0.93433589     0.33300
C183        C  0.14370095  0.75549471  0.95848369     0.01900
F184        F  0.11865189  0.66166673  0.02422028    -0.12400
F185        F  0.28605018  0.65189311  0.90568787    -0.13000
C186        C  0.09874631  0.75132125  0.95162333     0.16800
C187        C  0.07096019  0.80126481  0.95682944     0.26200
C188        C  0.08763739  0.85656341  0.96914368    -0.40100
C189        C  0.13320314  0.86068687  0.97461025     0.33200
C190        C  0.16076917  0.81066782  0.96954396     0.14900
F191        F  0.08161099  0.69862366  0.94034475    -0.12400
F192        F  0.15092474  0.91265517  0.98675931    -0.12900
F193        F  0.02763302  0.79514144  0.95011324    -0.15200
F194        F  0.20372914  0.81567853  0.97785783    -0.13800
F195        F  0.22702764  0.73859602  0.89234537    -0.13800
F196        F  0.17711219  0.57612525  0.03796995    -0.15200
C197        C  0.34065148  0.18863920  0.03539325     0.14900
C198        C  0.35785613  0.24448927  0.04407268     0.01800
C199        C  0.40409795  0.25027541  0.04488469     0.16800
C200        C  0.43298060  0.20159958  0.03509164     0.26200
C201        C  0.41607328  0.14568262  0.02481204    -0.40100
C202        C  0.36928056  0.13977282  0.02611688     0.33300
C203        C  0.32858553  0.29722542  0.04531679     0.01900
F204        F  0.42148199  0.30356801  0.05407642    -0.12400
F205        F  0.35104441  0.08707728  0.01685207    -0.13000
C206        C  0.28717414  0.30154886  0.07797505     0.16800
C207        C  0.25584518  0.34518739  0.07165625     0.26200
C208        C  0.26568422  0.38553706  0.03296872    -0.40100
C209        C  0.30847363  0.38356503  0.00285864     0.33200
C210        C  0.33951415  0.33997032  0.00893835     0.14900
F211        F  0.27630383  0.26187622  0.11448422    -0.12400
F212        F  0.31918687  0.42062605  0.96464516    -0.12900
F213        F  0.21510270  0.34649532  0.10187167    -0.15200
F214        F  0.37878018  0.33646167  0.97618447    -0.13800
F215        F  0.29630796  0.18186068  0.03311655    -0.13800
F216        F  0.47760595  0.20980019  0.03486152    -0.15200
O217        O  0.99180143  0.10047740  0.01247950    -0.70800
O218        O  0.57157054  0.96048360  0.97882424    -0.71700
O219        O  0.53464345  0.04397000  0.92037562    -0.60400
O220        O  0.52660597  0.01666145  0.06665480    -0.68800
O221        O  0.96863097  0.96115967  0.06965948    -0.68300
O222        O  0.97896772  0.98423949  0.92342781    -0.59600
O223        O  0.51265082  0.90221593  0.98068640    -0.72100
O224        O  0.93304586  0.04312321  0.00992170    -0.70900
Cu225      Cu  0.53260185  0.03248486  0.99366065     1.04600
Cu226      Cu  0.97184495  0.97081214  0.99649795     1.04300
C227        C  0.94925646  0.09413070  0.01583635     0.95400
C228        C  0.55527498  0.90895067  0.97583227     0.94600
C229        C  0.00925305  0.01779440  0.90042188     0.86700
C230        C  0.49455701  0.98553679  0.08946037     0.93000
N231        N  0.73705533  0.47921284  0.99914362    -0.01300
C232        C  0.73167792  0.42490449  0.01960577     0.01300
C233        C  0.69401875  0.39850557  0.00685355    -0.21600
C234        C  0.67835595  0.43494600  0.97426144    -0.21800
C235        C  0.70691638  0.48286974  0.96753086     0.01200
H236        H  0.68354142  0.35340440  0.01369194     0.15000
H237        H  0.65391653  0.42240625  0.95147448     0.15000
N238        N  0.76463305  0.52546203  0.01294644    -0.01300
C239        C  0.77053377  0.57973338  0.99243505     0.01300
C240        C  0.80653568  0.60726220  0.00801584    -0.21600
C241        C  0.82055892  0.57151457  0.04214821    -0.21800
C242        C  0.79285529  0.52274076  0.04671264     0.01200
H243        H  0.81662036  0.65259463  0.00172891     0.15000
H244        H  0.84339320  0.58455299  0.06670291     0.15000
O245        O  0.67832053  0.45980291  0.52072568    -0.70800
O246        O  0.76197579  0.59789727  0.49258071    -0.71700
O247        O  0.72241876  0.51601699  0.43409701    -0.60400
O248        O  0.71808508  0.54157150  0.58011492    -0.68800
O249        O  0.77592417  0.48050526  0.57706943    -0.68300
O250        O  0.78129128  0.45679122  0.43087777    -0.59600
O251        O  0.82058192  0.53847173  0.49087957    -0.72100
O252        O  0.73672393  0.39977236  0.51710577    -0.70900
Cu253      Cu  0.71819515  0.53090290  0.50703799     1.04600
Cu254      Cu  0.78070399  0.46690098  0.50390682     1.04300
C255        C  0.69411335  0.40783386  0.52290027     0.95400
C256        C  0.80456236  0.59006529  0.48713910     0.94600
C257        C  0.75258930  0.48259578  0.40926476     0.86700
C258        C  0.74596533  0.51421403  0.60187245     0.93000
N259        N  0.48680913  0.02152093  0.48735661    -0.01300
C260        C  0.48007809  0.07538606  0.51030365     0.01300
C261        C  0.44234304  0.10139910  0.49729667    -0.21600
C262        C  0.42815336  0.06534909  0.46252051    -0.21800
C263        C  0.45745595  0.01803214  0.45483412     0.01200
H264        H  0.43084452  0.14616610  0.50563786     0.15000
H265        H  0.40407655  0.07755821  0.43939394     0.15000
N266        N  0.01271071  0.97840317  0.50394159    -0.01300
C267        C  0.01835365  0.92347356  0.48288835     0.01300
C268        C  0.05559920  0.89712521  0.49651681    -0.21600
C269        C  0.07068816  0.93434831  0.52988600    -0.21800
C270        C  0.04232959  0.98280356  0.53619098     0.01200
H271        H  0.06611516  0.85169940  0.48963800     0.15000
H272        H  0.09469327  0.92248444  0.55314978     0.15000
C273        C  0.96258234  0.79557089  0.42757478     0.14900
C274        C  0.92045535  0.79420643  0.45878164     0.01800
C275        C  0.90789593  0.84108445  0.49220254     0.16800
C276        C  0.93835786  0.88621493  0.49732670     0.26200
C277        C  0.98196578  0.88573368  0.46862603    -0.40100
C278        C  0.99297307  0.84111868  0.43223077     0.33300
C279        C  0.89228688  0.74054152  0.46181365     0.01900
F280        F  0.86733098  0.84067149  0.52276333    -0.12400
F281        F  0.03421865  0.83994140  0.40303389    -0.13000
C282        C  0.90489083  0.69128274  0.48653903     0.16800
C283        C  0.87685854  0.64202456  0.49393110     0.26200
C284        C  0.83537554  0.64115911  0.47694743    -0.40100
C285        C  0.82325447  0.69024000  0.45119139     0.33200
C286        C  0.85147083  0.73952690  0.44379823     0.14900
F287        F  0.94372758  0.69190759  0.50526731    -0.12400
F288        F  0.78428363  0.69033178  0.43273933    -0.12900
F289        F  0.88947141  0.59624915  0.51966711    -0.15200
F290        F  0.83888401  0.78642304  0.41932245    -0.13800
F291        F  0.97512324  0.75113776  0.39437099    -0.13800
F292        F  0.92609764  0.92764444  0.53309572    -0.15200
C293        C  0.64883679  0.25329471  0.55158657     0.14900
C294        C  0.60490013  0.25780381  0.54130168     0.01800
C295        C  0.58983610  0.31241441  0.52706914     0.16800
C296        C  0.61836148  0.36129972  0.52219991     0.26200
C297        C  0.66291087  0.35669312  0.53119523    -0.40100
C298        C  0.67756720  0.30212146  0.54659646     0.33300
C299        C  0.57595756  0.20489731  0.54092736     0.01900
F300        F  0.54803203  0.31775917  0.51547451    -0.12400
F301        F  0.71977242  0.29576161  0.55680988    -0.13000
C302        C  0.53261251  0.20330682  0.56971500     0.16800
C303        C  0.50279407  0.15781014  0.56293414     0.26200
C304        C  0.51543263  0.11340656  0.52664657    -0.40100
C305        C  0.55993584  0.11337880  0.50016563     0.33200
C306        C  0.58988365  0.15823886  0.50760045     0.14900
F307        F  0.51855097  0.24715260  0.60303489    -0.12400
F308        F  0.57398210  0.07235442  0.46454714    -0.12900
F309        F  0.46063207  0.15878469  0.59012258    -0.15200
F310        F  0.63151423  0.15849043  0.47920760    -0.13800
F311        F  0.66405217  0.20131884  0.56613028    -0.13800
F312        F  0.60276690  0.41247547  0.50656668    -0.15200
C313        C  0.81317668  0.46155419  0.16805997     0.14900
C314        C  0.76939944  0.46256010  0.19602299     0.01800
C315        C  0.73274407  0.47164345  0.17162098     0.16800
C316        C  0.73987906  0.48765196  0.12199153     0.26200
C317        C  0.78391068  0.49138412  0.09471026    -0.40100
C318        C  0.82025205  0.47498689  0.11770467     0.33300
C319        C  0.76238272  0.46398108  0.25101724     0.01900
F320        F  0.68989775  0.46930511  0.19695321    -0.12400
F321        F  0.86306150  0.47632805  0.09223666    -0.13000
C322        C  0.73892933  0.51164840  0.27709746     0.16800
C323        C  0.73471958  0.51664595  0.32842348     0.26200
C324        C  0.75471356  0.47472646  0.35508357    -0.40100
C325        C  0.77769282  0.42645993  0.32911295     0.33200
C326        C  0.78120456  0.42097045  0.27761715     0.14900
F327        F  0.72170741  0.55521907  0.25259199    -0.12400
F328        F  0.79666066  0.38434064  0.35347541    -0.12900
F329        F  0.71260345  0.56417223  0.35161700    -0.15200
F330        F  0.80300674  0.37363225  0.25376743    -0.13800
F331        F  0.84946248  0.45283446  0.19027904    -0.13800
F332        F  0.70366773  0.50375547  0.10220251    -0.15200
C333        C  0.68494728  0.53634654  0.84425665     0.14900
C334        C  0.72803737  0.53093811  0.81521056     0.01800
C335        C  0.76515528  0.52120908  0.83860010     0.16800
C336        C  0.75897030  0.51118730  0.88936032     0.26200
C337        C  0.71540714  0.51122002  0.91811308    -0.40100
C338        C  0.67874066  0.52697782  0.89533020     0.33300
C339        C  0.73385344  0.52841212  0.76042437     0.01900
F340        F  0.80736910  0.51788498  0.81162429    -0.12400
F341        F  0.63639980  0.52929947  0.92202997    -0.13000
C342        C  0.72080470  0.57561669  0.73363785     0.16800
C343        C  0.72514420  0.57150105  0.68198838     0.26200
C344        C  0.74288277  0.52013552  0.65625392    -0.40100
C345        C  0.75643764  0.47325265  0.68325789     0.33200
C346        C  0.75171924  0.47725882  0.73473766     0.14900
F347        F  0.70430903  0.62590171  0.75749049    -0.12400
F348        F  0.77267898  0.42242017  0.66009121    -0.12900
F349        F  0.71263550  0.61810759  0.65713106    -0.15200
F350        F  0.76332878  0.43021312  0.75976751    -0.13800
F351        F  0.64840754  0.54589826  0.82264356    -0.13800
F352        F  0.79558640  0.49740033  0.90917566    -0.15200
C353        C  0.51900282  0.94276209  0.21489419     0.14900
C354        C  0.48144229  0.96692331  0.24682802     0.01800
C355        C  0.95241209  0.99910168  0.22953542     0.16800
C356        C  0.95701231  0.00476833  0.17827202     0.26200
C357        C  0.48996580  0.97792728  0.14322854    -0.40100
C358        C  0.52352483  0.94907523  0.16352871     0.33300
C359        C  0.47869253  0.96702920  0.30161638     0.01900
F360        F  0.91919918  0.02983178  0.25904026    -0.12400
F361        F  0.56036893  0.92642966  0.13351670    -0.13000
C362        C  0.51436821  0.98985784  0.32292887     0.16800
C363        C  0.50893857  0.00054235  0.37392461     0.26200
C364        C  0.46744565  0.99000909  0.40473144    -0.40100
C365        C  0.93148599  0.96537439  0.38650506     0.33200
C366        C  0.93784446  0.95164465  0.33577968     0.14900
F367        F  0.55319664  0.00705986  0.29399840    -0.12400
F368        F  0.88998852  0.95895782  0.41431872    -0.12900
F369        F  0.54294806  0.02685002  0.39214790    -0.15200
F370        F  0.90262361  0.93063624  0.31601396    -0.13800
F371        F  0.55132670  0.91310901  0.23340774    -0.13800
F372        F  0.92739177  0.03907932  0.15943555    -0.15200
C373        C  0.98542158  0.02491914  0.66591846     0.14900
C374        C  0.02285366  0.03838595  0.68808633     0.01800
C375        C  0.56708743  0.03786442  0.65392535     0.16800
C376        C  0.57269688  0.02611762  0.60289667     0.26200
C377        C  0.03382516  0.01383274  0.58534155    -0.40100
C378        C  0.99079742  0.01266972  0.61513908     0.33300
C379        C  0.01905661  0.03495559  0.74265198     0.01900
F380        F  0.60362497  0.05156766  0.67454140    -0.12400
F381        F  0.95435155  0.99488295  0.59632371    -0.13000
C382        C  0.00685280  0.98127333  0.76582926     0.16800
C383        C  0.00355729  0.97611876  0.81695605     0.26200
C384        C  0.01283235  0.02442506  0.84620273    -0.40100
C385        C  0.52456203  0.07480609  0.81842015     0.33200
C386        C  0.52852535  0.07830871  0.76678299     0.14900
F387        F  0.99916048  0.93313164  0.73857894    -0.12400
F388        F  0.53157091  0.12378299  0.84496844    -0.12900
F389        F  0.99267238  0.92308890  0.83766725    -0.15200
F390        F  0.53932449  0.13040481  0.74441310    -0.13800
F391        F  0.94402211  0.01938416  0.69420777    -0.13800
F392        F  0.61449973  0.02969899  0.57520465    -0.15200
C393        C  0.71491667  0.69978989  0.93028665     0.14900
C394        C  0.67286924  0.70488199  0.96169455     0.01800
C395        C  0.66102736  0.66309298  0.99878947     0.16800
C396        C  0.69159167  0.61932658  0.00630623     0.26200
C397        C  0.73468867  0.61623633  0.97686646    -0.40100
C398        C  0.74568157  0.65615713  0.93807568     0.33300
C399        C  0.64354072  0.75713937  0.95986842     0.01900
F400        F  0.62122517  0.66751696  0.03055424    -0.12400
F401        F  0.78707564  0.65450978  0.90919078    -0.13000
C402        C  0.59769903  0.75070810  0.95703950     0.16800
C403        C  0.56913080  0.79989308  0.96121322     0.26200
C404        C  0.58593667  0.85685665  0.96791203    -0.40100
C405        C  0.63232185  0.86315150  0.96900359     0.33200
C406        C  0.66059537  0.81389321  0.96538634     0.14900
F407        F  0.58040864  0.69653068  0.95086033    -0.12400
F408        F  0.65040636  0.91679249  0.97536634    -0.12900
F409        F  0.52488721  0.79131859  0.95942216    -0.15200
F410        F  0.70438334  0.82154942  0.96984630    -0.13800
F411        F  0.72689602  0.73864992  0.89335734    -0.13800
F412        F  0.68019104  0.58319336  0.04513023    -0.15200
C413        C  0.84361999  0.18944899  0.03232174     0.14900
C414        C  0.86062768  0.24544071  0.04093662     0.01800
C415        C  0.90659733  0.25123096  0.04326667     0.16800
C416        C  0.93532772  0.20220903  0.03578054     0.26200
C417        C  0.91856867  0.14603047  0.02609685    -0.40100
C418        C  0.87208369  0.14029640  0.02527554     0.33300
C419        C  0.83111269  0.29803902  0.04257399     0.01900
F420        F  0.92382588  0.30468273  0.05223321    -0.12400
F421        F  0.85402707  0.08742442  0.01616759    -0.13000
C422        C  0.78967522  0.30142842  0.07522263     0.16800
C423        C  0.75845024  0.34566608  0.07020731     0.26200
C424        C  0.76835558  0.38773912  0.03289701    -0.40100
C425        C  0.81126114  0.38673908  0.00291538     0.33200
C426        C  0.84215657  0.34224808  0.00749953     0.14900
F427        F  0.77871798  0.26039991  0.11059965    -0.12400
F428        F  0.82234514  0.42589007  0.96636073    -0.12900
F429        F  0.71772027  0.34602017  0.10044120    -0.15200
F430        F  0.88146882  0.33969650  0.97475462    -0.13800
F431        F  0.79964398  0.18267286  0.02830698    -0.13800
F432        F  0.97965278  0.21022453  0.03744070    -0.15200
loop_ 
_geom_bond_atom_site_label_1 
_geom_bond_atom_site_label_2 
_geom_bond_distance 
_geom_bond_site_symmetry_2 
_ccdc_geom_bond_type 
O1           C11   1.278       .  A
O1         Cu225   2.011   1_554  S
O2           C12   1.279       .  A
O2           Cu9   2.011   1_565  S
O3          C229   1.279       .  A
O3           Cu9   2.025       .  S
O4           C14   1.279   1_445  A
O4           Cu9   2.023   1_554  S
O5          C230   1.276       .  A
O5          Cu10   2.006   1_554  S
O6           C13   1.278   1_565  A
O6          Cu10   2.007       .  S
O7           C12   1.278       .  A
O7         Cu226   2.008   1_455  S
O8           C11   1.279       .  A
O8          Cu10   2.010   1_544  S
Cu9         O217   2.013   1_456  S
Cu9        Cu226   2.368   1_445  S
Cu10        O223   2.013       .  S
Cu10       Cu225   2.368   1_565  S
C11         C201   1.491       .  S
C12         C188   1.488       .  S
C13         O219   1.279       .  A
C13         C168   1.482       .  S
C14         O221   1.277       .  A
C14         C141   1.473       .  S
N15          C19   1.366       .  A
N15          C16   1.364   1_556  A
N15          N22   1.429   1_556  S
C16         C208   1.487       .  S
C16          C17   1.381       .  A
C17          C18   1.371   1_554  A
C17          H20   1.083       .  S
C18          C19   1.384       .  A
C18          H21   1.082       .  S
C19         C121   1.494       .  S
N22          C26   1.366       .  A
N22          C23   1.364   1_554  A
C23         C181   1.487       .  S
C23          C24   1.382   1_556  A
C24          C25   1.370       .  A
C24          H27   1.083   1_554  S
C25          C26   1.383       .  A
C25          H28   1.082       .  S
C26         C101   1.492       .  S
O29          C39   1.279       .  A
O29         Cu37   2.019       .  S
O30          C40   1.279       .  A
O30         Cu37   2.016       .  S
O31          C41   1.279       .  A
O31         Cu37   2.011       .  S
O32          C42   1.278       .  A
O32         Cu37   2.019       .  S
O33          C42   1.278       .  A
O33         Cu38   2.008       .  S
O34          C41   1.278       .  A
O34         Cu38   2.014       .  S
O35          C40   1.279       .  A
O35         Cu38   2.019       .  S
O36          C39   1.279       .  A
O36         Cu38   2.015       .  S
Cu37        Cu38   2.367       .  S
C39          C81   1.492       .  S
C40          C68   1.490       .  S
C41         C108   1.485       .  S
C42         C128   1.484       .  S
N43          C47   1.364       .  A
N43          C44   1.365       .  A
N43         N266   1.427   1_645  S
C44          C88   1.492   1_655  S
C44          C45   1.383       .  A
C45          C46   1.373       .  A
C45          H48   1.083       .  S
C46          C47   1.382       .  A
C46          H49   1.083       .  S
C47         C148   1.492   1_545  S
N50          C54   1.364       .  A
N50          C51   1.366       .  A
N50         N259   1.428   1_565  S
C51          C61   1.497       .  S
C51          C52   1.384       .  A
C52          C53   1.371       .  A
C52          H55   1.083       .  S
C53          C54   1.382       .  A
C53          H56   1.081       .  S
C54         C161   1.492   1_565  S
C57          C58   1.405       .  A
C57          C62   1.404       .  A
C57          F75   1.358       .  S
C58          C63   1.484       .  S
C58          C59   1.402       .  A
C59          C60   1.398       .  A
C59          F64   1.358       .  S
C60          C61   1.411       .  A
C60          F76   1.352       .  S
C61          C62   1.411       .  A
C62          F65   1.358       .  S
C63          C66   1.405       .  A
C63          C70   1.404       .  A
C66          C67   1.400       .  A
C66          F71   1.358       .  S
C67          C68   1.410       .  A
C67          F73   1.358       .  S
C68          C69   1.412       .  A
C69          C70   1.403       .  A
C69          F72   1.358       .  S
C70          F74   1.358       .  S
C77          C78   1.404       .  A
C77          C82   1.402       .  A
C77          F95   1.358       .  S
C78          C83   1.484       .  S
C78          C79   1.405       .  A
C79          C80   1.400       .  A
C79          F84   1.358       .  S
C80          C81   1.411       .  A
C80          F96   1.358       .  S
C81          C82   1.413       .  A
C82          F85   1.358       .  S
C83          C86   1.406       .  A
C83          C90   1.403       .  A
C86          C87   1.403       .  A
C86          F91   1.357       .  S
C87          C88   1.409       .  A
C87          F93   1.358   1_455  S
C88          C89   1.409       .  A
C89          C90   1.397       .  A
C89          F92   1.352       .  S
C90          F94   1.358       .  S
C97          C98   1.406       .  A
C97         C102   1.402       .  A
C97         F115   1.358       .  S
C98         C103   1.486       .  S
C98          C99   1.404       .  A
C99         C100   1.397       .  A
C99         F104   1.358       .  S
C100        C101   1.409       .  A
C100        F116   1.354       .  S
C101        C102   1.410       .  A
C102        F105   1.358       .  S
C103        C106   1.406       .  A
C103        C110   1.406       .  A
C106        C107   1.395       .  A
C106        F111   1.358       .  S
C107        C108   1.407       .  A
C107        F113   1.358       .  S
C108        C109   1.412       .  A
C109        C110   1.405       .  A
C109        F112   1.358       .  S
C110        F114   1.358       .  S
C117        C118   1.405       .  A
C117        C122   1.402       .  A
C117        F135   1.358       .  S
C118        C123   1.484       .  S
C118        C119   1.403       .  A
C119        C120   1.398       .  A
C119        F124   1.358       .  S
C120        C121   1.410       .  A
C120        F136   1.352       .  S
C121        C122   1.410       .  A
C122        F125   1.358       .  S
C123        C126   1.406       .  A
C123        C130   1.405       .  A
C126        C127   1.405       .  A
C126        F131   1.358       .  S
C127        C128   1.411       .  A
C127        F133   1.358       .  S
C128        C129   1.407       .  A
C129        C130   1.395       .  A
C129        F132   1.358       .  S
C130        F134   1.358       .  S
C137        C138   1.411   1_455  A
C137        C142   1.405       .  A
C137        F155   1.358       .  S
C138        C143   1.492       .  S
C138        C355   1.410       .  A
C139        C140   1.398   1_565  A
C139        C354   1.410       .  A
C139        F144   1.358   1_565  S
C140        C357   1.402   1_545  A
C140        F156   1.358       .  S
C141        C142   1.405   1_655  A
C141        C356   1.401   1_565  A
C142        F145   1.358       .  S
C143        C146   1.406   1_655  A
C143        C366   1.409       .  A
C146        C147   1.399       .  A
C146        F151   1.358       .  S
C147        C148   1.408   1_455  A
C147        F153   1.352   1_565  S
C148        C365   1.407       .  A
C149        C150   1.402       .  A
C149        C364   1.406       .  A
C149        F152   1.357       .  S
C150        C359   1.409       .  A
C150        F154   1.358       .  S
C157        C158   1.403       .  A
C157        C162   1.397       .  A
C157        F175   1.358       .  S
C158        C163   1.483       .  S
C158        C375   1.405       .  A
C159        C160   1.403       .  A
C159        C374   1.405       .  A
C159        F164   1.357       .  S
C160        C377   1.410       .  A
C160        F176   1.358       .  S
C161        C162   1.409       .  A
C161        C376   1.409       .  A
C162        F165   1.352   1_545  S
C163        C166   1.405   1_545  A
C163        C386   1.405       .  A
C166        C167   1.396       .  A
C166        F171   1.358       .  S
C167        C168   1.407   1_565  A
C167        F173   1.358       .  S
C168        C385   1.409       .  A
C169        C170   1.406       .  A
C169        C384   1.410       .  A
C169        F172   1.358       .  S
C170        C379   1.406       .  A
C170        F174   1.357       .  S
C177        C178   1.405       .  A
C177        C182   1.399       .  A
C177        F195   1.358       .  S
C178        C183   1.482       .  S
C178        C179   1.404       .  A
C179        C180   1.397   1_556  A
C179        F184   1.358   1_556  S
C180        C181   1.408   1_554  A
C180        F196   1.354       .  S
C181        C182   1.407       .  A
C182        F185   1.358       .  S
C183        C186   1.404       .  A
C183        C190   1.405       .  A
C186        C187   1.400       .  A
C186        F191   1.358       .  S
C187        C188   1.412       .  A
C187        F193   1.358       .  S
C188        C189   1.411       .  A
C189        C190   1.398       .  A
C189        F192   1.358       .  S
C190        F194   1.358       .  S
C197        C198   1.405       .  A
C197        C202   1.398       .  A
C197        F215   1.358       .  S
C198        C203   1.484       .  S
C198        C199   1.405       .  A
C199        C200   1.400       .  A
C199        F204   1.358       .  S
C200        C201   1.413       .  A
C200        F216   1.358       .  S
C201        C202   1.412       .  A
C202        F205   1.358       .  S
C203        C206   1.407       .  A
C203        C210   1.404       .  A
C206        C207   1.402       .  A
C206        F211   1.358       .  S
C207        C208   1.408       .  A
C207        F213   1.358       .  S
C208        C209   1.407       .  A
C209        C210   1.394       .  A
C209        F212   1.352   1_554  S
C210        F214   1.358   1_554  S
O217        C227   1.279       .  A
O218        C228   1.278       .  A
O218       Cu225   2.007   1_565  S
O219       Cu225   2.023       .  S
O220        C230   1.278   1_545  A
O220       Cu225   2.019   1_554  S
O221       Cu226   2.010   1_554  S
O222        C229   1.278   1_665  A
O222       Cu226   2.009       .  S
O223        C228   1.279       .  A
O224        C227   1.278       .  A
O224       Cu226   2.007   1_544  S
C227        C417   1.491       .  S
C228        C404   1.491       .  S
C229        C384   1.484       .  S
C230        C357   1.472       .  S
N231        C235   1.364       .  A
N231        C232   1.363   1_556  A
N231        N238   1.428   1_556  S
C232        C424   1.489       .  S
C232        C233   1.380       .  A
C233        C234   1.371   1_554  A
C233        H236   1.083       .  S
C234        C235   1.385       .  A
C234        H237   1.082       .  S
C235        C337   1.494       .  S
N238        C242   1.365       .  A
N238        C239   1.364   1_554  A
C239        C397   1.486       .  S
C239        C240   1.381   1_556  A
C240        C241   1.371       .  A
C240        H243   1.083       .  S
C241        C242   1.384       .  A
C241        H244   1.082       .  S
C242        C317   1.492       .  S
O245        C255   1.279       .  A
O245       Cu253   2.018       .  S
O246        C256   1.278       .  A
O246       Cu253   2.017       .  S
O247        C257   1.278       .  A
O247       Cu253   2.007       .  S
O248        C258   1.279       .  A
O248       Cu253   2.016       .  S
O249        C258   1.278       .  A
O249       Cu254   2.007       .  S
O250        C257   1.278       .  A
O250       Cu254   2.011       .  S
O251        C256   1.280       .  A
O251       Cu254   2.025       .  S
O252        C255   1.279       .  A
O252       Cu254   2.020       .  S
Cu253      Cu254   2.368       .  S
C255        C297   1.493       .  S
C256        C284   1.489       .  S
C257        C324   1.485       .  S
C258        C344   1.483       .  S
N259        C263   1.363       .  A
N259        C260   1.366       .  A
C260        C304   1.497       .  S
C260        C261   1.385       .  A
C261        C262   1.372       .  A
C261        H264   1.082       .  S
C262        C263   1.381       .  A
C262        H265   1.083       .  S
C263        C364   1.488   1_545  S
N266        C270   1.365       .  A
N266        C267   1.365       .  A
C267        C277   1.495   1_455  S
C267        C268   1.382       .  A
C268        C269   1.372       .  A
C268        H271   1.084       .  S
C269        C270   1.383       .  A
C269        H272   1.082       .  S
C270        C377   1.494   1_565  S
C273        C274   1.404       .  A
C273        C278   1.403       .  A
C273        F291   1.357       .  S
C274        C279   1.483       .  S
C274        C275   1.402       .  A
C275        C276   1.400       .  A
C275        F280   1.358       .  S
C276        C277   1.411       .  A
C276        F292   1.353       .  S
C277        C278   1.410       .  A
C278        F281   1.358   1_655  S
C279        C282   1.405       .  A
C279        C286   1.404       .  A
C282        C283   1.401       .  A
C282        F287   1.358       .  S
C283        C284   1.409       .  A
C283        F289   1.358       .  S
C284        C285   1.412       .  A
C285        C286   1.404       .  A
C285        F288   1.358       .  S
C286        F290   1.358       .  S
C293        C294   1.405       .  A
C293        C298   1.403       .  A
C293        F311   1.358       .  S
C294        C299   1.488       .  S
C294        C295   1.406       .  A
C295        C296   1.401       .  A
C295        F300   1.358       .  S
C296        C297   1.411       .  A
C296        F312   1.358       .  S
C297        C298   1.412       .  A
C298        F301   1.358       .  S
C299        C302   1.406       .  A
C299        C306   1.404       .  A
C302        C303   1.403       .  A
C302        F307   1.358       .  S
C303        C304   1.411       .  A
C303        F309   1.358       .  S
C304        C305   1.411       .  A
C305        C306   1.399       .  A
C305        F308   1.353       .  S
C306        F310   1.358       .  S
C313        C314   1.407       .  A
C313        C318   1.401       .  A
C313        F331   1.357       .  S
C314        C319   1.487       .  S
C314        C315   1.405       .  A
C315        C316   1.397       .  A
C315        F320   1.358       .  S
C316        C317   1.410       .  A
C316        F332   1.353       .  S
C317        C318   1.409       .  A
C318        F321   1.358       .  S
C319        C322   1.408       .  A
C319        C326   1.406       .  A
C322        C323   1.395       .  A
C322        F327   1.358       .  S
C323        C324   1.408       .  A
C323        F329   1.358       .  S
C324        C325   1.411       .  A
C325        C326   1.403       .  A
C325        F328   1.358       .  S
C326        F330   1.358       .  S
C333        C334   1.406       .  A
C333        C338   1.402       .  A
C333        F351   1.358       .  S
C334        C339   1.484       .  S
C334        C335   1.402       .  A
C335        C336   1.396       .  A
C335        F340   1.358       .  S
C336        C337   1.410       .  A
C336        F352   1.351       .  S
C337        C338   1.410       .  A
C338        F341   1.358       .  S
C339        C342   1.404       .  A
C339        C346   1.406       .  A
C342        C343   1.403       .  A
C342        F347   1.357       .  S
C343        C344   1.410       .  A
C343        F349   1.357       .  S
C344        C345   1.408       .  A
C345        C346   1.397       .  A
C345        F348   1.358       .  S
C346        F350   1.358       .  S
C353        C354   1.411       .  A
C353        C358   1.403       .  A
C353        F371   1.358       .  S
C354        C359   1.492       .  S
C355        C356   1.398   1_565  A
C355        F360   1.358   1_565  S
C356        F372   1.358       .  S
C357        C358   1.403       .  A
C358        F361   1.358       .  S
C359        C362   1.407       .  A
C362        C363   1.398   1_565  A
C362        F367   1.358   1_565  S
C363        C364   1.407   1_545  A
C363        F369   1.353       .  S
C365        C366   1.402       .  A
C365        F368   1.358       .  S
C366        F370   1.358       .  S
C373        C374   1.404   1_655  A
C373        C378   1.398       .  A
C373        F391   1.358       .  S
C374        C379   1.486       .  S
C375        C376   1.403       .  A
C375        F380   1.357       .  S
C376        F392   1.358       .  S
C377        C378   1.409   1_455  A
C378        F381   1.353   1_545  S
C379        C382   1.406   1_545  A
C382        C383   1.397       .  A
C382        F387   1.358   1_455  S
C383        C384   1.407   1_565  A
C383        F389   1.358   1_455  S
C385        C386   1.405       .  A
C385        F388   1.357       .  S
C386        F390   1.357       .  S
C393        C394   1.407       .  A
C393        C398   1.401       .  A
C393        F411   1.358       .  S
C394        C399   1.486       .  S
C394        C395   1.405       .  A
C395        C396   1.397   1_556  A
C395        F400   1.358   1_556  S
C396        C397   1.407   1_554  A
C396        F412   1.354       .  S
C397        C398   1.407       .  A
C398        F401   1.358       .  S
C399        C402   1.405       .  A
C399        C406   1.405       .  A
C402        C403   1.401       .  A
C402        F407   1.358       .  S
C403        C404   1.412       .  A
C403        F409   1.358       .  S
C404        C405   1.412       .  A
C405        C406   1.398       .  A
C405        F408   1.358       .  S
C406        F410   1.358       .  S
C413        C414   1.405       .  A
C413        C418   1.398       .  A
C413        F431   1.358       .  S
C414        C419   1.485       .  S
C414        C415   1.405       .  A
C415        C416   1.401       .  A
C415        F420   1.358       .  S
C416        C417   1.412       .  A
C416        F432   1.358       .  S
C417        C418   1.412       .  A
C418        F421   1.358       .  S
C419        C422   1.407       .  A
C419        C426   1.404       .  A
C422        C423   1.401       .  A
C422        F427   1.358       .  S
C423        C424   1.408       .  A
C423        F429   1.358       .  S
C424        C425   1.408       .  A
C425        C426   1.396       .  A
C425        F428   1.351   1_554  S
C426        F430   1.358   1_554  S
