geometry optimzed in LAMMPS
_audit_creation_date              2020-11-30 
_audit_creation_method            'lammps2cif' 
_symmetry_space_group_name_H-M    'P1' 
_symmetry_Int_Tables_number       1 
_symmetry_cell_setting            triclinic 
loop_ 
_symmetry_equiv_pos_as_xyz 
  x,y,z 
_cell_length_a                    61.36435109 
_cell_length_b                    61.38488031287379 
_cell_length_c                    91.68399821062671 
_cell_angle_alpha                 89.96884959529717 
_cell_angle_beta                  90.03055603673617 
_cell_angle_gamma                 120.8408632176095 
loop_ 
_atom_site_label 
_atom_site_type_symbol 
_atom_site_fract_x 
_atom_site_fract_y 
_atom_site_fract_z 
_atom_site_charge 
N1          N  0.34088898  0.27809876  0.67545318    -0.25300
N2          N  0.36544438  0.28663846  0.67407249    -0.33100
C3          C  0.37190200  0.27364042  0.68315725     0.03000
C4          C  0.35040338  0.25613463  0.69056146     0.09100
C5          C  0.33107156  0.25939748  0.68547184    -0.04000
H6          H  0.39082843  0.27668854  0.68423934     0.09700
H7          H  0.31135621  0.24896478  0.68876387     0.10900
Cu8        Cu  0.38916496  0.31530506  0.65978636     0.44200
Cu9        Cu  0.32191931  0.29219828  0.66351480     0.42000
Cu10       Cu  0.36047668  0.34220380  0.63749300     0.43900
N11         N  0.40909999  0.34353786  0.64444950    -0.32700
N12         N  0.39856650  0.35340709  0.63625711    -0.26900
C13         C  0.41615419  0.37047625  0.62708180    -0.03000
C14         C  0.43873658  0.37134945  0.62969982     0.09200
C15         C  0.43368013  0.35405280  0.64071057     0.03000
H16         H  0.41257747  0.38096276  0.61888978     0.10600
H17         H  0.44667452  0.34899984  0.64540968     0.09700
N18         N  0.32191559  0.32749666  0.64053490    -0.34100
N19         N  0.30779465  0.30935346  0.64998687    -0.26300
C20         C  0.28365320  0.30408374  0.64901854    -0.01500
C21         C  0.28272742  0.31968909  0.63849203     0.07100
C22         C  0.30718282  0.33422843  0.63331733     0.05200
H23         H  0.26796824  0.28979070  0.65538069     0.10300
H24         H  0.31377809  0.34847543  0.62482927     0.09100
N25         N  0.92474201  0.27959502  0.67594361    -0.25300
N26         N  0.91019905  0.28970479  0.67542895    -0.33100
C27         C  0.89067115  0.27719667  0.68472430     0.03000
C28         C  0.89307336  0.25838747  0.69137604     0.09100
C29         C  0.91481242  0.26034728  0.68561804    -0.04000
H30         H  0.87580080  0.28145379  0.68645166     0.09700
H31         H  0.92276056  0.24862493  0.68818903     0.10900
Cu32       Cu  0.91708013  0.31978220  0.66201618     0.44200
Cu33       Cu  0.95707235  0.29218524  0.66319385     0.42000
Cu34       Cu  0.97205833  0.34447851  0.63868531     0.43900
N35         N  0.92722873  0.34906003  0.64726406    -0.32700
N36         N  0.94748304  0.35816643  0.63878896    -0.26900
C37         C  0.94790163  0.37566381  0.62978164    -0.03000
C38         C  0.92696951  0.37763041  0.63278795     0.09200
C39         C  0.91417669  0.36051895  0.64385980     0.03000
H40         H  0.96172565  0.38528261  0.62122149     0.10600
H41         H  0.89616393  0.35587510  0.64861994     0.09700
N42         N  0.99273482  0.32645254  0.63974582    -0.34100
N43         N  0.98742665  0.30744665  0.64870307    -0.26300
C44         C  0.00442050  0.30007462  0.64660377    -0.01500
C45         C  0.02103086  0.31516956  0.63583009     0.07100
C46         C  0.01316301  0.33165200  0.63170177     0.05200
H47         H  0.00462022  0.28488455  0.65247528     0.10300
H48         H  0.02164625  0.34637147  0.62349435     0.09100
N49         N  0.18952665  0.32476334  0.61538518    -0.25300
N50         N  0.20473148  0.33361983  0.60391325    -0.33100
C51         C  0.22619166  0.33359109  0.60679694     0.03000
C52         C  0.22440981  0.32430810  0.62070422     0.09100
C53         C  0.20101595  0.31888070  0.62590147    -0.04000
H54         H  0.24200243  0.34007879  0.59934516     0.09700
H55         H  0.19299053  0.31137902  0.63652409     0.10900
Cu56       Cu  0.19653304  0.34623735  0.58489697     0.44200
Cu57       Cu  0.15402368  0.32145561  0.61622016     0.42000
Cu58       Cu  0.13631048  0.34242814  0.58365293     0.43900
N59         N  0.18494656  0.35938718  0.56749928    -0.32700
N60         N  0.16269459  0.35791258  0.56707364    -0.26900
C61         C  0.16107765  0.36887847  0.55475292    -0.03000
C62         C  0.18336465  0.37755586  0.54711420     0.09200
C63         C  0.19815330  0.37135777  0.55543701     0.03000
H64         H  0.14512106  0.37087422  0.55177796     0.10600
H65         H  0.21725173  0.37569769  0.55309119     0.09700
N66         N  0.11362275  0.32835060  0.60193384    -0.34100
N67         N  0.11992816  0.32081148  0.61390478    -0.26300
C68         C  0.10148540  0.31409439  0.62391637    -0.01500
C69         C  0.08287349  0.31757849  0.61784837     0.07100
C70         C  0.09112200  0.32664790  0.60397158     0.05200
H71         H  0.10196182  0.30784905  0.63488713     0.10300
H72         H  0.08187132  0.33233970  0.59607568     0.09100
N73         N  0.98135606  0.68727004  0.64404054    -0.25300
N74         N  0.98508189  0.67314916  0.63464770    -0.33100
C75         C  0.00662493  0.68796402  0.62721141     0.03000
C76         C  0.01690255  0.71249754  0.63219295     0.09100
C77         C  0.00051319  0.71151960  0.64284425    -0.04000
H78         H  0.01432754  0.68129161  0.61890127     0.09700
H79         H  0.00239703  0.72715274  0.64929309     0.10900
Cu80       Cu  0.96134452  0.63423506  0.63274290     0.44200
Cu81       Cu  0.95054885  0.67241375  0.65815794     0.42000
Cu82       Cu  0.90654357  0.60385947  0.65641853     0.43900
N83         N  0.93644730  0.59536583  0.63336675    -0.32700
N84         N  0.91627017  0.58412336  0.64193324    -0.26900
C85         C  0.90400684  0.55892015  0.63951614    -0.03000
C86         C  0.91725972  0.55426306  0.62901785     0.09200
C87         C  0.93760818  0.57768653  0.62530918     0.03000
H88         H  0.88655433  0.54512637  0.64481941     0.10600
H89         H  0.95192180  0.58168248  0.61714992     0.09700
N90         N  0.90287521  0.62800216  0.67081415    -0.34100
N91         N  0.91886548  0.65281340  0.67145692    -0.26300
C92         C  0.91143783  0.66263742  0.68213383    -0.01500
C93         C  0.88984501  0.64308578  0.68846987     0.07100
C94         C  0.88487023  0.62142037  0.68107883     0.05200
H95         H  0.92115772  0.68249740  0.68510351     0.10300
H96         H  0.86944264  0.60226439  0.68306801     0.09100
N97         N  0.30464172  0.01139692  0.64373415    -0.25300
N98         N  0.31878890  0.00786913  0.63425790    -0.33100
C99         C  0.30404781  0.98631942  0.62681897     0.03000
C100        C  0.27953489  0.97583397  0.63188770     0.09100
C101        C  0.28044570  0.99210222  0.64259293    -0.04000
H102        H  0.31077064  0.97871939  0.61847651     0.09700
H103        H  0.26481784  0.99001435  0.64913774     0.10900
Cu104      Cu  0.35767682  0.03174774  0.63234962     0.44200
Cu105      Cu  0.31944834  0.04204831  0.65793942     0.42000
Cu106      Cu  0.38816573  0.08589836  0.65642513     0.43900
N107        N  0.39657980  0.05636943  0.63312881    -0.32700
N108        N  0.40789448  0.07629707  0.64186896    -0.26900
C109        C  0.43312679  0.08838423  0.63954874    -0.03000
C110        C  0.43771113  0.07526643  0.62892796     0.09200
C111        C  0.41422978  0.05519260  0.62505089     0.03000
H112        H  0.44698843  0.10562924  0.64499865     0.10600
H113        H  0.41018111  0.04104887  0.61677299     0.09700
N114        N  0.36392171  0.08945257  0.67078701    -0.34100
N115        N  0.33907895  0.07354601  0.67134640    -0.26300
C116        C  0.32922443  0.08090321  0.68204108    -0.01500
C117        C  0.34879185  0.10235644  0.68847289     0.07100
C118        C  0.37049254  0.10733002  0.68112255     0.05200
H119        H  0.30933553  0.07122739  0.68495751     0.10300
H120        H  0.38966575  0.12266941  0.68318639     0.09100
N121        N  0.18793557  0.87278653  0.61036351    -0.25300
N122        N  0.20423811  0.87774298  0.59961957    -0.33100
C123        C  0.22549814  0.90010920  0.60220547     0.03000
C124        C  0.22239433  0.90962062  0.61514385     0.09100
C125        C  0.19845464  0.89193781  0.62008611    -0.04000
H126        H  0.24207265  0.90865686  0.59523907     0.09700
H127        H  0.18945338  0.89273749  0.63005170     0.10900
Cu128      Cu  0.19760096  0.85391475  0.58201040     0.44200
Cu129      Cu  0.15255608  0.83977255  0.61153532     0.42000
Cu130      Cu  0.13818430  0.79492033  0.58189285     0.43900
N131        N  0.18708960  0.82703798  0.56563206    -0.32700
N132        N  0.16517964  0.80529981  0.56558004    -0.26900
C133        C  0.16395519  0.79202173  0.55361142    -0.03000
C134        C  0.18614724  0.80615268  0.54582230     0.09200
C135        C  0.20042059  0.82820454  0.55369917     0.03000
H136        H  0.14810593  0.77349809  0.55081500     0.10600
H137        H  0.21907326  0.84392343  0.55098466     0.09700
N138        N  0.11442037  0.78821897  0.59955934    -0.34100
N139        N  0.11949380  0.80443290  0.61036638    -0.26300
C140        C  0.10044989  0.79383582  0.62015913    -0.01500
C141        C  0.08270310  0.76993949  0.61519482     0.07100
C142        C  0.09207535  0.76694348  0.60217102     0.05200
H143        H  0.09978348  0.80274081  0.63019565     0.10300
H144        H  0.08347832  0.75040480  0.59518154     0.09100
N145        N  0.56537208  0.13571410  0.56353293    -0.34600
N146        N  0.58639892  0.11453727  0.58358389    -0.55200
N147        N  0.54180194  0.09584490  0.60223469    -0.34600
N148        N  0.52175688  0.11878913  0.58282238    -0.55200
C149        C  0.58950738  0.14686733  0.55851542     0.29000
C150        C  0.55496054  0.14871603  0.55792096     0.29000
C151        C  0.55699502  0.09155740  0.61096577     0.29000
C152        C  0.52268829  0.09387748  0.61059299     0.29000
C153        C  0.60374534  0.12182424  0.57277454     0.37600
C154        C  0.59105877  0.10035084  0.59290931     0.37600
C155        C  0.51402312  0.12745920  0.57159095     0.37600
C156        C  0.50170664  0.10662600  0.59193402     0.37600
C157        C  0.59426166  0.16682706  0.54934586    -0.19900
C158        C  0.57247117  0.16796462  0.54895416    -0.35500
C159        C  0.54716954  0.08635937  0.62501028    -0.19900
C160        C  0.52551485  0.08780761  0.62476956    -0.19900
C161        C  0.61954500  0.11224530  0.57523480    -0.20900
C162        C  0.61148299  0.09859458  0.58797245    -0.20900
C163        C  0.48899601  0.12092108  0.57361949    -0.20900
C164        C  0.48119006  0.10772311  0.58649215    -0.20900
C165        C  0.60706967  0.13902954  0.56156452    -0.16300
C166        C  0.52987111  0.14322737  0.56028573    -0.16300
C167        C  0.50220842  0.09630349  0.60562165    -0.16300
C168        C  0.57874669  0.09100223  0.60645554    -0.16300
H169        H  0.61163950  0.17932504  0.54352922     0.16600
H170        H  0.56987919  0.18152486  0.54280128     0.16600
H171        H  0.55473578  0.08185968  0.63444972     0.16600
H172        H  0.51321105  0.08466258  0.63398082     0.16600
H173        H  0.63556071  0.11526203  0.56871212     0.14900
H174        H  0.62010272  0.08902644  0.59319052     0.14900
H175        H  0.47768974  0.12561952  0.56669943     0.14900
H176        H  0.46265876  0.10021852  0.59140536     0.14900
H177        H  0.55578043  0.11880049  0.56930691     0.28200
H178        H  0.54294710  0.09734913  0.59095919     0.28200
N179        N  0.48552578  0.28620436  0.52193880    -0.25300
N180        N  0.49932078  0.28236015  0.53153181    -0.33100
C181        C  0.50984283  0.30183214  0.54097079     0.03000
C182        C  0.50228571  0.31866090  0.53714185     0.09100
C183        C  0.48692247  0.30834347  0.52503991    -0.04000
H184        H  0.52184989  0.30342400  0.55004962     0.09700
H185        H  0.47728623  0.31613730  0.51903930     0.10900
Cu186      Cu  0.50235872  0.25036293  0.53200484     0.44200
Cu187      Cu  0.46484429  0.26042502  0.50554474     0.42000
Cu188      Cu  0.46427671  0.20051170  0.50655696     0.43900
N189        N  0.50042754  0.21575288  0.53183388    -0.32700
N190        N  0.48626420  0.19721486  0.52262782    -0.26900
C191        C  0.48870007  0.17709425  0.52566720    -0.03000
C192        C  0.50518642  0.18349306  0.53729958     0.09200
C193        C  0.51224982  0.20801237  0.54096440     0.03000
H194        H  0.47909860  0.15919286  0.51990069     0.10600
H195        H  0.52483956  0.21933530  0.54970077     0.09700
N196        N  0.44455594  0.20901081  0.49140637    -0.34100
N197        N  0.44489697  0.23074712  0.49097951    -0.26300
C198        C  0.43061200  0.23023716  0.47969714    -0.01500
C199        C  0.42087871  0.20713145  0.47278848     0.07100
C200        C  0.43003718  0.19411759  0.48041029     0.05200
H201        H  0.42779213  0.24566088  0.47667395     0.10300
H202        H  0.42673035  0.17539062  0.47804231     0.09100
N203        N  0.56502638  0.42673996  0.56305804    -0.34600
N204        N  0.52120341  0.40260742  0.58238291    -0.55200
N205        N  0.54436098  0.44747343  0.60095643    -0.34600
N206        N  0.58923124  0.47056959  0.58236804    -0.55200
C207        C  0.55290866  0.40287505  0.55762397     0.29000
C208        C  0.58888295  0.43885467  0.55760065     0.29000
C209        C  0.52449809  0.43131969  0.60942010     0.29000
C210        C  0.56054695  0.46732572  0.60941383     0.29000
C211        C  0.51229724  0.38541278  0.57144212     0.37600
C212        C  0.50135726  0.39639310  0.59133514     0.37600
C213        C  0.60635782  0.47947864  0.57138827     0.37600
C214        C  0.59543775  0.49043209  0.59130016     0.37600
C215        C  0.56913006  0.39994911  0.54837453    -0.19900
C216        C  0.59180096  0.42262369  0.54835962    -0.19900
C217        C  0.52790956  0.44123114  0.62339473    -0.19900
C218        C  0.55064628  0.46393901  0.62339117    -0.19900
C219        C  0.48672259  0.36802775  0.57352119    -0.20900
C220        C  0.47977556  0.37499662  0.58610569    -0.20900
C221        C  0.62369536  0.50506977  0.57342413    -0.20900
C222        C  0.61676556  0.51202445  0.58602174    -0.20900
C223        C  0.52732184  0.38401825  0.56024522    -0.16300
C224        C  0.60772885  0.46445101  0.56018684    -0.16300
C225        C  0.58331219  0.48898038  0.60467580    -0.16300
C226        C  0.50282481  0.40856050  0.60469504    -0.16300
H227        H  0.56506645  0.38323553  0.54221806     0.16600
H228        H  0.60850630  0.42668351  0.54218922     0.16600
H229        H  0.51526466  0.43303061  0.63262642     0.16600
H230        H  0.55886906  0.47658491  0.63261896     0.16600
H231        H  0.47443736  0.35180833  0.56678508     0.14900
H232        H  0.46105992  0.36516815  0.59096766     0.14900
H233        H  0.63985381  0.51736357  0.56664779     0.14900
H234        H  0.62656563  0.53075647  0.59085545     0.14900
H235        H  0.55670461  0.43506891  0.56890376     0.28200
H236        H  0.54544649  0.44637715  0.58970944     0.28200
N237        N  0.70544207  0.50608021  0.52176307    -0.25300
N238        N  0.70936733  0.49247059  0.53144688    -0.33100
C239        C  0.68990711  0.48202094  0.54089792     0.03000
C240        C  0.67299826  0.48943334  0.53698654     0.09100
C241        C  0.68325677  0.50463636  0.52481900    -0.04000
H242        H  0.68838847  0.47018018  0.55004909     0.09700
H243        H  0.67540245  0.51414877  0.51875119     0.10900
Cu244      Cu  0.74147902  0.48963145  0.53204961     0.44200
Cu245      Cu  0.73123552  0.52662690  0.50534289     0.42000
Cu246      Cu  0.79136457  0.52747630  0.50660628     0.43900
N247        N  0.77612299  0.49162026  0.53201224    -0.32700
N248        N  0.79467350  0.50567523  0.52278745    -0.26900
C249        C  0.81477072  0.50321335  0.52586921    -0.03000
C250        C  0.80834254  0.48682867  0.53755236     0.09200
C251        C  0.78383217  0.47985077  0.54120256     0.03000
H252        H  0.83265902  0.51269170  0.52007979     0.10600
H253        H  0.77247091  0.46730344  0.54994369     0.09700
N254        N  0.78282388  0.54702175  0.49135765    -0.34100
N255        N  0.76102602  0.54656601  0.49083611    -0.26300
C256        C  0.76156249  0.56078526  0.47951352    -0.01500
C257        C  0.78474621  0.57059632  0.47267844     0.07100
C258        C  0.79778222  0.56155325  0.48038454     0.05200
H259        H  0.74611220  0.56352625  0.47642097     0.10300
H260        H  0.81657606  0.56495855  0.47809477     0.09100
N261        N  0.79895939  0.28351524  0.52571917    -0.25300
N262        N  0.78002277  0.27977173  0.53430131    -0.33100
C263        C  0.78803283  0.29975279  0.54328512     0.03000
C264        C  0.81316959  0.31683522  0.54020840     0.09100
C265        C  0.81960987  0.30608316  0.52903074    -0.04000
H266        H  0.77642560  0.30159804  0.55150044     0.09700
H267        H  0.83786265  0.31400149  0.52371322     0.10900
Cu268      Cu  0.74448674  0.24717481  0.53399395     0.44200
Cu269      Cu  0.79530303  0.25724409  0.51012725     0.42000
Cu270      Cu  0.73475337  0.19634794  0.51021327     0.43900
N271        N  0.71197903  0.21157385  0.53428604    -0.32700
N272        N  0.70837683  0.19263718  0.52575385    -0.26900
C273        C  0.68583361  0.17194336  0.52905375    -0.03000
C274        C  0.67494875  0.17835430  0.54016952     0.09200
C275        C  0.69192541  0.20351983  0.54322277     0.03000
H276        H  0.67801781  0.15368280  0.52376652     0.10600
H277        H  0.68996241  0.21511579  0.55139262     0.09700
N278        N  0.76439695  0.20566361  0.49576124    -0.34100
N279        N  0.78619074  0.22759717  0.49572671    -0.26300
C280        C  0.80070216  0.22760054  0.48472246    -0.01500
C281        C  0.78741103  0.20464445  0.47757425     0.07100
C282        C  0.76451786  0.19118339  0.48477838     0.05200
H283        H  0.81929948  0.24336718  0.48195978     0.10300
H284        H  0.74887173  0.17249019  0.48206612     0.09100
N285        N  0.85588511  0.42636172  0.56369904    -0.34600
N286        N  0.87305746  0.47005324  0.58297455    -0.55200
N287        N  0.89598018  0.44993363  0.60232745    -0.34600
N288        N  0.87704977  0.40527118  0.58369180    -0.55200
C289        C  0.84288515  0.43681054  0.55813555     0.29000
C290        C  0.84463427  0.40221865  0.55869538     0.29000
C291        C  0.89811864  0.46912310  0.61067988     0.29000
C292        C  0.90026026  0.43472257  0.61104371     0.29000
C293        C  0.86431122  0.47777258  0.57177541     0.37600
C294        C  0.88528891  0.49010886  0.59207293     0.37600
C295        C  0.86963782  0.38787875  0.57290315     0.37600
C296        C  0.89120154  0.40054713  0.59300945     0.37600
C297        C  0.82352788  0.41930937  0.54921960    -0.19900
C298        C  0.82460411  0.39749160  0.54958903    -0.19900
C299        C  0.90428401  0.46631967  0.62483775    -0.19900
C300        C  0.90561761  0.44460693  0.62507325    -0.19900
C301        C  0.87086140  0.50279313  0.57381459    -0.20900
C302        C  0.88414732  0.51060965  0.58665876    -0.20900
C303        C  0.87909535  0.37198084  0.57537090    -0.20900
C304        C  0.89280091  0.38002904  0.58809045    -0.20900
C305        C  0.84846198  0.46192205  0.56049584    -0.16300
C306        C  0.85243313  0.38461760  0.56170379    -0.16300
C307        C  0.90066993  0.41289724  0.60653372    -0.16300
C308        C  0.89574874  0.48963973  0.60572043    -0.16300
H309        H  0.80993532  0.42192638  0.54311528     0.16600
H310        H  0.81201739  0.38011229  0.54380252     0.16600
H311        H  0.90756357  0.47867454  0.63404043     0.16600
H312        H  0.91015147  0.43704260  0.63449927     0.16600
H313        H  0.86611313  0.51408945  0.56692179     0.14900
H314        H  0.89168587  0.52913986  0.59157032     0.14900
H315        H  0.87596322  0.35591174  0.56886627     0.14900
H316        H  0.90230541  0.37134236  0.59330748     0.14900
H317        H  0.87286221  0.43593774  0.56942832     0.28200
H318        H  0.89436882  0.44873574  0.59105512     0.28200
N319        N  0.71163738  0.06653208  0.67608075    -0.25300
N320        N  0.70171265  0.08122964  0.67544852    -0.33100
C321        C  0.71425742  0.10077425  0.68472244     0.03000
C322        C  0.73289417  0.09821895  0.69148392     0.09100
C323        C  0.73079888  0.07637499  0.68581450    -0.04000
H324        H  0.71014895  0.11576451  0.68635562     0.09700
H325        H  0.74239034  0.06831361  0.68847218     0.10900
Cu326      Cu  0.67181031  0.07452770  0.66193385     0.44200
Cu327      Cu  0.69897935  0.03416211  0.66337458     0.42000
Cu328      Cu  0.64688388  0.01944520  0.63872679     0.43900
N329        N  0.64243551  0.06435724  0.64725040    -0.32700
N330        N  0.63321689  0.04403883  0.63882809    -0.26900
C331        C  0.61567011  0.04360063  0.62984995    -0.03000
C332        C  0.61379650  0.06459305  0.63281670     0.09200
C333        C  0.63100774  0.07743537  0.64383950     0.03000
H334        H  0.60598490  0.02974234  0.62131662     0.10600
H335        H  0.63575974  0.09550867  0.64854698     0.09700
N336        N  0.66480973  0.99867119  0.63983631    -0.34100
N337        N  0.68372659  0.00387561  0.64884862    -0.26300
C338        C  0.69101134  0.98680989  0.64679083    -0.01500
C339        C  0.67595225  0.97025645  0.63598869     0.07100
C340        C  0.65958277  0.97823598  0.63179738     0.05200
H341        H  0.70610668  0.98651168  0.65271799     0.10300
H342        H  0.64490610  0.96981001  0.62356047     0.09100
N343        N  0.71388362  0.65096447  0.67538588    -0.25300
N344        N  0.70533221  0.62641200  0.67402578    -0.33100
C345        C  0.71836511  0.61998480  0.68310465     0.03000
C346        C  0.73590287  0.64149893  0.69048214     0.09100
C347        C  0.73262458  0.66080932  0.68538329    -0.04000
H348        H  0.71530530  0.60106380  0.68420963     0.09700
H349        H  0.74305688  0.68052373  0.68866448     0.10900
Cu350      Cu  0.67656570  0.60263697  0.65979394     0.44200
Cu351      Cu  0.69969777  0.66987996  0.66348269     0.42000
Cu352      Cu  0.64934968  0.63114758  0.63764824     0.43900
N353        N  0.64824244  0.58263249  0.64450170    -0.32700
N354        N  0.63825924  0.59311387  0.63636140    -0.26900
C355        C  0.62119888  0.57553134  0.62718126    -0.03000
C356        C  0.62044736  0.55300067  0.62973958     0.09200
C357        C  0.63780607  0.55808529  0.64072347     0.03000
H358        H  0.61064843  0.57908405  0.61901898     0.10600
H359        H  0.64296730  0.54513959  0.64536859     0.09700
N360        N  0.66405209  0.66968948  0.64066577    -0.34100
N361        N  0.68232967  0.68387257  0.65003537    -0.26300
C362        C  0.68761405  0.70800347  0.64902681    -0.01500
C363        C  0.67187666  0.70885438  0.63856227     0.07100
C364        C  0.65724395  0.68437034  0.63346331     0.05200
H365        H  0.70203157  0.72373715  0.65530337     0.10300
H366        H  0.64291636  0.67772819  0.62501730     0.09100
N367        N  0.66705558  0.80209249  0.61539638    -0.25300
N368        N  0.65848792  0.78705409  0.60384456    -0.33100
C369        C  0.65856097  0.76561491  0.60669506     0.03000
C370        C  0.66756558  0.76723997  0.62066044     0.09100
C371        C  0.67278433  0.79051192  0.62592855    -0.04000
H372        H  0.65224579  0.74990463  0.59918988     0.09700
H373        H  0.68000805  0.79837980  0.63661703     0.10900
Cu374      Cu  0.64603128  0.79530880  0.58478161     0.44200
Cu375      Cu  0.67014293  0.83746671  0.61638008     0.42000
Cu376      Cu  0.64919408  0.85513713  0.58382258     0.43900
N377        N  0.63275006  0.80685640  0.56742925    -0.32700
N378        N  0.63398729  0.82899247  0.56711607    -0.26900
C379        C  0.62292605  0.83061985  0.55483840    -0.03000
C380        C  0.61442918  0.80845843  0.54710770     0.09200
C381        C  0.62083597  0.79373069  0.55533390     0.03000
H382        H  0.62070950  0.84647732  0.55196550     0.10600
H383        H  0.61663999  0.77471021  0.55291162     0.09700
N384        N  0.66297159  0.87769952  0.60216474    -0.34100
N385        N  0.67051827  0.87141774  0.61414084    -0.26300
C386        C  0.67708100  0.88979062  0.62417653    -0.01500
C387        C  0.67348160  0.90832955  0.61811543     0.07100
C388        C  0.66451109  0.90011210  0.60422093     0.05200
H389        H  0.68333835  0.88933306  0.63514748     0.10300
H390        H  0.65881991  0.90934455  0.59631317     0.09100
O391        O  0.78213177  0.62360107  0.72626905    -0.70900
O392        O  0.82850529  0.62434058  0.75746738    -0.71900
O393        O  0.78182980  0.62355157  0.75723786    -0.60500
O394        O  0.82883740  0.62443116  0.72644284    -0.69000
O395        O  0.85001352  0.66659351  0.72640986    -0.68500
O396        O  0.80290333  0.66571554  0.75728318    -0.59800
O397        O  0.84970974  0.66650329  0.75755533    -0.72300
O398        O  0.80318207  0.66576115  0.72625867    -0.71000
Cu399      Cu  0.80462654  0.62252229  0.74185644     1.04600
Cu400      Cu  0.82723147  0.66765065  0.74188020     1.04300
C401        C  0.78532587  0.64453952  0.72141593     0.95300
C402        C  0.84625590  0.64546961  0.76244557     0.94400
C403        C  0.78494942  0.64448138  0.76204009     0.86500
C404        C  0.84664656  0.64559707  0.72153177     0.92800
O405        O  0.82669290  0.21176782  0.72665511    -0.70900
O406        O  0.77960264  0.16469367  0.75764190    -0.71900
O407        O  0.82668248  0.21178264  0.75764241    -0.60500
O408        O  0.77960919  0.16467810  0.72666847    -0.69000
O409        O  0.80048491  0.14391537  0.72672126    -0.68500
O410        O  0.84747048  0.19093063  0.75762811    -0.59800
O411        O  0.80049375  0.14394476  0.75763634    -0.72300
O412        O  0.84747959  0.19091759  0.72670226    -0.71000
Cu413      Cu  0.80239900  0.18898068  0.74215356     1.04600
Cu414      Cu  0.82470164  0.16671329  0.74217580     1.04300
C415        C  0.84453435  0.20875887  0.72189102     0.95300
C416        C  0.78260693  0.14684681  0.76240342     0.94400
C417        C  0.84454040  0.20878839  0.76240526     0.86500
C418        C  0.78261831  0.14683502  0.72191951     0.92800
O419        O  0.32616062  0.18885127  0.72631123    -0.70900
O420        O  0.32541133  0.14233674  0.75760184    -0.71900
O421        O  0.32616811  0.18908052  0.75734030    -0.60500
O422        O  0.32532266  0.14204592  0.72646985    -0.69000
O423        O  0.36750153  0.16321825  0.72650229    -0.68500
O424        O  0.36834725  0.21017083  0.75731581    -0.59800
O425        O  0.36759027  0.16354505  0.75752159    -0.72300
O426        O  0.36833511  0.20990878  0.72633417    -0.71000
Cu427      Cu  0.32426079  0.16480156  0.74193169     1.04600
Cu428      Cu  0.36940674  0.18741297  0.74191863     1.04300
C429        C  0.34739108  0.20671011  0.72147503     0.95300
C430        C  0.34645296  0.14580740  0.76250064     0.94400
C431        C  0.34739407  0.20700762  0.76212374     0.86500
C432        C  0.34632520  0.14541444  0.72159484     0.92800
N433        N  0.34013736  0.27738028  0.80844173    -0.25300
N434        N  0.36480521  0.28633124  0.80966774    -0.33100
C435        C  0.37145831  0.27373480  0.80041394     0.03000
C436        C  0.34999133  0.25607238  0.79306545     0.09100
C437        C  0.33045857  0.25880096  0.79835819    -0.04000
H438        H  0.39050211  0.27715783  0.79918588     0.09700
H439        H  0.31070526  0.24810827  0.79515039     0.10900
Cu440      Cu  0.38863016  0.31498252  0.82390820     0.44200
Cu441      Cu  0.32069475  0.29078419  0.82050735     0.42000
Cu442      Cu  0.35969641  0.34202949  0.84554502     0.43900
N443        N  0.40840245  0.34327815  0.83920856    -0.32700
N444        N  0.39772846  0.35328093  0.84714165    -0.26900
C445        C  0.41515346  0.37056095  0.85629517    -0.03000
C446        C  0.43779348  0.37144565  0.85392471     0.09200
C447        C  0.43293350  0.35391376  0.84309608     0.03000
H448        H  0.41145109  0.38126636  0.86426226     0.10600
H449        H  0.44605973  0.34889821  0.83856744     0.09700
N450        N  0.32102409  0.32692746  0.84291580    -0.34100
N451        N  0.30663086  0.30815855  0.83387444    -0.26300
C452        C  0.28242182  0.30257180  0.83514750    -0.01500
C453        C  0.28176183  0.31864806  0.84544001     0.07100
C454        C  0.30643039  0.33377708  0.85016234     0.05200
H455        H  0.26651957  0.28773865  0.82916985     0.10300
H456        H  0.31325801  0.34844005  0.85840782     0.09100
N457        N  0.92493998  0.27943552  0.80828219    -0.25300
N458        N  0.91051282  0.28968579  0.80874180    -0.33100
C459        C  0.89109714  0.27737971  0.79935549     0.03000
C460        C  0.89343185  0.25855528  0.79270581     0.09100
C461        C  0.91502090  0.26028706  0.79855016    -0.04000
H462        H  0.87626935  0.28170122  0.79762417     0.09700
H463        H  0.92281599  0.24841252  0.79604262     0.10900
Cu464      Cu  0.91695974  0.31941557  0.82230182     0.44200
Cu465      Cu  0.95701551  0.29150471  0.82121594     0.42000
Cu466      Cu  0.97124129  0.34345786  0.84585630     0.43900
N467        N  0.92640312  0.34811082  0.83734251    -0.32700
N468        N  0.94645559  0.35699013  0.84596905    -0.26900
C469        C  0.94668600  0.37431311  0.85504572    -0.03000
C470        C  0.92584785  0.37641692  0.85191799     0.09200
C471        C  0.91329813  0.35953786  0.84070264     0.03000
H472        H  0.96044314  0.38389590  0.86364369     0.10600
H473        H  0.89551110  0.35517234  0.83572823     0.09700
N474        N  0.99235513  0.32581291  0.84475733    -0.34100
N475        N  0.98724716  0.30684595  0.83581997    -0.26300
C476        C  0.00436210  0.29963886  0.83800361    -0.01500
C477        C  0.02087455  0.31482022  0.84879954     0.07100
C478        C  0.01279603  0.33116712  0.85285317     0.05200
H479        H  0.00470384  0.28449093  0.83218047     0.10300
H480        H  0.02109745  0.34584727  0.86108580     0.09100
N481        N  0.18848259  0.32258361  0.86941405    -0.25300
N482        N  0.20390156  0.33166969  0.88079283    -0.33100
C483        C  0.22546037  0.33193198  0.87776235     0.03000
C484        C  0.22350886  0.32258649  0.86386224     0.09100
C485        C  0.19992068  0.31682177  0.85882157    -0.04000
H486        H  0.24145003  0.33866453  0.88510801     0.09700
H487        H  0.19175343  0.30923626  0.84823607     0.10900
Cu488      Cu  0.19588026  0.34417213  0.89989966     0.44200
Cu489      Cu  0.15287307  0.31905144  0.86868757     0.42000
Cu490      Cu  0.13482350  0.33839744  0.90167163     0.43900
N491        N  0.18410351  0.35677986  0.91744954    -0.32700
N492        N  0.16148825  0.35446373  0.91810278    -0.26900
C493        C  0.15983928  0.36541316  0.93041466    -0.03000
C494        C  0.18248759  0.37496473  0.93780729     0.09200
C495        C  0.19751367  0.36928161  0.92935237     0.03000
H496        H  0.14363154  0.36688336  0.93352082     0.10600
H497        H  0.21690874  0.37437107  0.93148328     0.09700
N498        N  0.11246512  0.32563339  0.88317609    -0.34100
N499        N  0.11896272  0.31876947  0.87102506    -0.26300
C500        C  0.10091382  0.31307155  0.86088182    -0.01500
C501        C  0.08234150  0.31651157  0.86704204     0.07100
C502        C  0.09021960  0.32450001  0.88112269     0.05200
H503        H  0.10161859  0.30750878  0.84977737     0.10300
H504        H  0.08089805  0.32984062  0.88916235     0.09100
N505        N  0.56504367  0.13714836  0.92020970    -0.34600
N506        N  0.52153863  0.11995987  0.90069285    -0.55200
N507        N  0.54169649  0.09646415  0.88178109    -0.34600
N508        N  0.58621066  0.11553292  0.90062063    -0.55200
C509        C  0.55462079  0.15025300  0.92563417     0.29000
C510        C  0.58899751  0.14806511  0.92550981     0.29000
C511        C  0.52235171  0.09387010  0.87337489     0.29000
C512        C  0.55686994  0.09187161  0.87322534     0.29000
C513        C  0.51390768  0.12921609  0.91165912     0.37600
C514        C  0.50152018  0.10762625  0.89156750     0.37600
C515        C  0.60346031  0.12296261  0.91150695     0.37600
C516        C  0.59109242  0.10140575  0.89138531     0.37600
C517        C  0.57193907  0.16933330  0.93476170    -0.19900
C518        C  0.59361000  0.16797382  0.93467002    -0.19900
C519        C  0.52500659  0.08708197  0.85935069    -0.19900
C520        C  0.54679487  0.08586097  0.85924743    -0.19900
C521        C  0.48900866  0.12297086  0.90941445    -0.20900
C522        C  0.48115512  0.10928656  0.89670765    -0.20900
C523        C  0.61941855  0.11353715  0.90918000    -0.20900
C524        C  0.61157852  0.09986152  0.89645210    -0.20900
C525        C  0.52966903  0.14500056  0.92299296    -0.16300
C526        C  0.60654009  0.14010674  0.92270181    -0.16300
C527        C  0.57884416  0.09177001  0.87784248    -0.16300
C528        C  0.50184750  0.09642230  0.87816426    -0.16300
H529        H  0.56929649  0.18292195  0.94083652     0.16600
H530        H  0.61082263  0.18030311  0.94067202     0.16600
H531        H  0.51251898  0.08334492  0.85014404     0.16600
H532        H  0.55426971  0.08094573  0.84994410     0.16600
H533        H  0.47778858  0.12808752  0.91610779     0.14900
H534        H  0.46267576  0.10178043  0.89171726     0.14900
H535        H  0.63539375  0.11666017  0.91578842     0.14900
H536        H  0.62034893  0.09035772  0.89134723     0.14900
H537        H  0.55552662  0.12030253  0.91438470     0.28200
H538        H  0.54302007  0.09860551  0.89301712     0.28200
N539        N  0.79918398  0.28364079  0.95822291    -0.25300
N540        N  0.78008854  0.27999542  0.94980083    -0.33100
C541        C  0.78781856  0.30027612  0.94107849     0.03000
C542        C  0.81293689  0.31747636  0.94415405     0.09100
C543        C  0.81965510  0.30645161  0.95506136    -0.04000
H544        H  0.77604544  0.30223143  0.93301705     0.09700
H545        H  0.83799780  0.31432781  0.96027181     0.10900
Cu546      Cu  0.74464754  0.24717538  0.95001353     0.44200
Cu547      Cu  0.79591728  0.25686847  0.97341847     0.42000
Cu548      Cu  0.73509157  0.19603309  0.97351731     0.43900
N549        N  0.71180619  0.21175475  0.94993973    -0.32700
N550        N  0.70821499  0.19270630  0.95838186    -0.26900
C551        C  0.68538613  0.17221959  0.95526743    -0.03000
C552        C  0.67429645  0.17888463  0.94437178     0.09200
C553        C  0.69147090  0.20398074  0.94125471     0.03000
H554        H  0.67755501  0.15389821  0.96049072     0.10600
H555        H  0.68947728  0.21569977  0.93317440     0.09700
N556        N  0.76507833  0.20512566  0.98773428    -0.34100
N557        N  0.78694532  0.22699779  0.98770506    -0.26300
C558        C  0.80151544  0.22692732  0.99867462    -0.01500
C559        C  0.78819820  0.20399957  0.00587837     0.07100
C560        C  0.76522728  0.19063206  0.99872025     0.05200
H561        H  0.82013124  0.24267739  0.00142412     0.10300
H562        H  0.74949768  0.17203299  0.00151344     0.09100
N563        N  0.71179492  0.06651620  0.80825670    -0.25300
N564        N  0.70178780  0.08114827  0.80884503    -0.33100
C565        C  0.71413554  0.10055307  0.79945895     0.03000
C566        C  0.73272722  0.09798548  0.79267415     0.09100
C567        C  0.73081471  0.07627548  0.79843911    -0.04000
H568        H  0.71001353  0.11553675  0.79782479     0.09700
H569        H  0.74250940  0.06831244  0.79583788     0.10900
Cu570      Cu  0.67230385  0.07490624  0.82257032     0.44200
Cu571      Cu  0.69965446  0.03445393  0.82118453     0.42000
Cu572      Cu  0.64798176  0.02036325  0.84601061     0.43900
N573        N  0.64357067  0.06538247  0.83760509    -0.32700
N574        N  0.63458254  0.04525163  0.84617255    -0.26900
C575        C  0.61720775  0.04498264  0.85522698    -0.03000
C576        C  0.61518463  0.06587383  0.85214270     0.09200
C577        C  0.63216174  0.07849461  0.84098123     0.03000
H578        H  0.60752917  0.03115558  0.86377825     0.10600
H579        H  0.63659519  0.09632621  0.83604955     0.09700
N580        N  0.66556439  0.99920177  0.84481584    -0.34100
N581        N  0.68444313  0.00428517  0.83580774    -0.26300
C582        C  0.69167778  0.98718613  0.83793457    -0.01500
C583        C  0.67660423  0.97070054  0.84876532     0.07100
C584        C  0.66028969  0.97878028  0.85290245     0.05200
H585        H  0.70677415  0.98683862  0.83204899     0.10300
H586        H  0.64569510  0.97049999  0.86118703     0.09100
N587        N  0.71433629  0.65153832  0.80827849    -0.25300
N588        N  0.70536944  0.62687422  0.80949130    -0.33100
C589        C  0.71793009  0.62022338  0.80020399     0.03000
C590        C  0.73558205  0.64169082  0.79284984     0.09100
C591        C  0.73288398  0.66121548  0.79817373    -0.04000
H592        H  0.71452450  0.60119252  0.79897696     0.09700
H593        H  0.74360959  0.68097404  0.79499204     0.10900
Cu594      Cu  0.67680354  0.60308831  0.82379954     0.44200
Cu595      Cu  0.70107282  0.67102496  0.82041367     0.42000
Cu596      Cu  0.64995282  0.63215625  0.84552562     0.43900
N597        N  0.64859194  0.58340117  0.83917089    -0.32700
N598        N  0.63866456  0.59411919  0.84713162    -0.26900
C599        C  0.62145723  0.57674697  0.85633851    -0.03000
C600        C  0.62054359  0.55409641  0.85397947     0.09200
C601        C  0.63797758  0.55889544  0.84309486     0.03000
H602        H  0.61083474  0.58049737  0.86434123     0.10600
H603        H  0.64295617  0.54574916  0.83855921     0.09700
N604        N  0.66508071  0.67082497  0.84287963    -0.34100
N605        N  0.68381969  0.68517810  0.83380997    -0.26300
C606        C  0.68943132  0.70939014  0.83506666    -0.01500
C607        C  0.67340058  0.71009521  0.84538001     0.07100
C608        C  0.65827404  0.68544811  0.85012852     0.05200
H609        H  0.70424082  0.72526114  0.82905829     0.10300
H610        H  0.64363413  0.67865410  0.85838978     0.09100
N611        N  0.66942220  0.80337175  0.86929418    -0.25300
N612        N  0.66021339  0.78792403  0.88065397    -0.33100
C613        C  0.65993446  0.76635921  0.87763211     0.03000
C614        C  0.66940182  0.76833721  0.86375990     0.09100
C615        C  0.67525254  0.79194839  0.85872674    -0.04000
H616        H  0.65311913  0.75035124  0.88496689     0.09700
H617        H  0.68294207  0.80014141  0.84816112     0.10900
Cu618      Cu  0.64760724  0.79592789  0.89973831     0.44200
Cu619      Cu  0.67300459  0.83899627  0.86854642     0.42000
Cu620      Cu  0.65340652  0.85691380  0.90152330     0.43900
N621        N  0.63494349  0.80765846  0.91729380    -0.32700
N622        N  0.63726047  0.83026488  0.91795045    -0.26900
C623        C  0.62625092  0.83188954  0.93024614    -0.03000
C624        C  0.61666019  0.80923078  0.93762774     0.09200
C625        C  0.62238579  0.79422988  0.92918033     0.03000
H626        H  0.62475904  0.84808289  0.93334507     0.10600
H627        H  0.61727293  0.77483241  0.93130122     0.09700
N628        N  0.66623156  0.87927779  0.88303875    -0.34100
N629        N  0.67317198  0.87284261  0.87089248    -0.26300
C630        C  0.67882326  0.89088519  0.86075481    -0.01500
C631        C  0.67527398  0.90938218  0.86691788     0.07100
C632        C  0.66727353  0.90147018  0.88098980     0.05200
H633        H  0.68440966  0.89021639  0.84965031     0.10300
H634        H  0.66183702  0.91071859  0.88902325     0.09100
N635        N  0.85488046  0.42684969  0.92007270    -0.34600
N636        N  0.87216359  0.47036934  0.90055331    -0.55200
N637        N  0.89556111  0.45011182  0.88161185    -0.34600
N638        N  0.87639806  0.40559282  0.90045260    -0.55200
C639        C  0.84184686  0.43733366  0.92552488     0.29000
C640        C  0.84393688  0.40290597  0.92538335     0.29000
C641        C  0.89833861  0.46955519  0.87323496     0.29000
C642        C  0.90020255  0.43496551  0.87306416     0.29000
C643        C  0.86289401  0.47801056  0.91151051     0.37600
C644        C  0.88450543  0.49036630  0.89141505     0.37600
C645        C  0.86893822  0.38834735  0.91134054     0.37600
C646        C  0.89047705  0.40065825  0.89120461     0.37600
C647        C  0.82280001  0.42006910  0.93469096    -0.19900
C648        C  0.82409661  0.39836885  0.93458762    -0.19900
C649        C  0.90531521  0.46699933  0.85923939    -0.19900
C650        C  0.90644797  0.44516821  0.85912219    -0.19900
C651        C  0.86914217  0.50289697  0.90924700    -0.20900
C652        C  0.88283679  0.51072875  0.89654045    -0.20900
C653        C  0.87831253  0.37234977  0.90900707    -0.20900
C654        C  0.89197276  0.38015104  0.89627071    -0.20900
C655        C  0.84710953  0.46228013  0.92285997    -0.16300
C656        C  0.85180031  0.38529802  0.92253948    -0.16300
C657        C  0.90013595  0.41289569  0.87765895    -0.16300
C658        C  0.89576283  0.49004661  0.87802305    -0.16300
H659        H  0.80926498  0.42276082  0.94079421     0.16600
H660        H  0.81176683  0.38118457  0.94060916     0.16600
H661        H  0.90922954  0.47957690  0.85005881     0.16600
H662        H  0.91146449  0.43775225  0.84983383     0.16600
H663        H  0.86402637  0.51412651  0.91592992     0.14900
H664        H  0.89035316  0.52919789  0.89154327     0.14900
H665        H  0.87516260  0.35637171  0.91561631     0.14900
H666        H  0.90143993  0.37134592  0.89116206     0.14900
H667        H  0.87169045  0.43631111  0.91420985     0.28200
H668        H  0.89323839  0.44868374  0.89283203     0.28200
N669        N  0.70483788  0.50726117  0.96135250    -0.25300
N670        N  0.70770677  0.49212832  0.95231850    -0.33100
C671        C  0.68771943  0.48105614  0.94323633     0.03000
C672        C  0.67161748  0.48969588  0.94672824     0.09100
C673        C  0.68287845  0.50624218  0.95824857    -0.04000
H674        H  0.68541741  0.46815531  0.93452474     0.09700
H675        H  0.67594729  0.51707918  0.96377320     0.10900
Cu676      Cu  0.73954381  0.48876920  0.95188738     0.44200
Cu677      Cu  0.73177825  0.52939798  0.97685455     0.42000
Cu678      Cu  0.79119054  0.52934475  0.97612950     0.43900
N679        N  0.77445139  0.49126066  0.95173275    -0.32700
N680        N  0.79350643  0.50622387  0.96046347    -0.26900
C681        C  0.81365753  0.50398238  0.95718144    -0.03000
C682        C  0.80676733  0.48681620  0.94588622     0.09200
C683        C  0.78191409  0.47913040  0.94266889     0.03000
H684        H  0.83195048  0.51426547  0.96251264     0.10600
H685        H  0.77019476  0.46597036  0.93424364     0.09700
N686        N  0.78338769  0.55023296  0.99076960    -0.34100
N687        N  0.76178708  0.55017019  0.99102556    -0.26300
C688        C  0.76245027  0.56489707  0.00207477    -0.01500
C689        C  0.78552247  0.57463433  0.00902450     0.07100
C690        C  0.79836523  0.56501777  0.00166444     0.05200
H691        H  0.74704251  0.56779574  0.00500911     0.10300
H692        H  0.81692612  0.56801978  0.00422327     0.09100
N693        N  0.56368806  0.42794667  0.92076361    -0.34600
N694        N  0.58808927  0.47168742  0.90135104    -0.55200
N695        N  0.54331289  0.44862156  0.88265326    -0.34600
N696        N  0.52009157  0.40370481  0.90125195    -0.55200
C697        C  0.58748353  0.44007695  0.92630843     0.29000
C698        C  0.55153289  0.40411463  0.92624663     0.29000
C699        C  0.55944626  0.46858031  0.87424233     0.29000
C700        C  0.52338907  0.43256219  0.87419719     0.29000
C701        C  0.60524786  0.48056171  0.91231980     0.37600
C702        C  0.59447590  0.49150737  0.89234022     0.37600
C703        C  0.51114880  0.38642387  0.91215533     0.37600
C704        C  0.50033439  0.39738854  0.89219896     0.37600
C705        C  0.59028484  0.42392338  0.93569228    -0.19900
C706        C  0.56763254  0.40126361  0.93565347    -0.19900
C707        C  0.54941881  0.46538300  0.86030355    -0.19900
C708        C  0.52667961  0.44267178  0.86027574    -0.19900
C709        C  0.62278883  0.50607292  0.91019641    -0.20900
C710        C  0.61595490  0.51302433  0.89755879    -0.20900
C711        C  0.48566105  0.36887115  0.90994510    -0.20900
C712        C  0.47879032  0.37582882  0.89732423    -0.20900
C713        C  0.60645509  0.46557236  0.92360936    -0.16300
C714        C  0.52605871  0.38514878  0.92347243    -0.16300
C715        C  0.50180916  0.40965833  0.87886687    -0.16300
C716        C  0.58233475  0.49011785  0.87897123    -0.16300
H717        H  0.60692466  0.42799792  0.94194482     0.16600
H718        H  0.56352854  0.38458590  0.94186990     0.16600
H719        H  0.55757273  0.47813975  0.85111251     0.16600
H720        H  0.51396959  0.43458574  0.85105859     0.16600
H721        H  0.63900602  0.51831914  0.91694973     0.14900
H722        H  0.62590418  0.53171391  0.89266947     0.14900
H723        H  0.47337731  0.35257231  0.91663193     0.14900
H724        H  0.46013630  0.36590327  0.89238244     0.14900
H725        H  0.55545209  0.43621860  0.91476855     0.28200
H726        H  0.54451244  0.44734403  0.89388094     0.28200
N727        N  0.48439654  0.28696565  0.96137541    -0.25300
N728        N  0.49975677  0.28420503  0.95246911    -0.33100
C729        C  0.51084890  0.30415279  0.94336546     0.03000
C730        C  0.50198091  0.32011819  0.94670266     0.09100
C731        C  0.48528448  0.30881964  0.95816014    -0.04000
H732        H  0.52388912  0.30649526  0.93472648     0.09700
H733        H  0.47424227  0.31564066  0.96355596     0.10900
Cu734      Cu  0.50328385  0.25248902  0.95214627     0.44200
Cu735      Cu  0.46209727  0.25998122  0.97683210     0.42000
Cu736      Cu  0.46228742  0.20066342  0.97614772     0.43900
N737        N  0.50072771  0.21758132  0.95193807    -0.32700
N738        N  0.48560636  0.19845494  0.96058068    -0.26900
C739        C  0.48782551  0.17830903  0.95727120    -0.03000
C740        C  0.50514068  0.18528233  0.94604970     0.09200
C741        C  0.51293683  0.21017293  0.94290113     0.03000
H742        H  0.47741791  0.15996283  0.96252743     0.10600
H743        H  0.52621605  0.22195224  0.93453664     0.09700
N744        N  0.44122466  0.20835038  0.99071494    -0.34100
N745        N  0.44123918  0.22991932  0.99096709    -0.26300
C746        C  0.42641862  0.22918473  0.00198595    -0.01500
C747        C  0.41667105  0.20609847  0.00891523     0.07100
C748        C  0.42637995  0.19332387  0.00157670     0.05200
H749        H  0.42346750  0.24455534  0.00491752     0.10300
H750        H  0.42341046  0.17478125  0.00413343     0.09100
N751        N  0.98132951  0.68800515  0.83972350    -0.25300
N752        N  0.98526223  0.67408156  0.84917344    -0.33100
C753        C  0.00645262  0.68921025  0.85681947     0.03000
C754        C  0.01628006  0.71373577  0.85192762     0.09100
C755        C  0.99999864  0.71243911  0.84109631    -0.04000
H756        H  0.01423266  0.68275955  0.86521854     0.09700
H757        H  0.00162311  0.72797555  0.83465009     0.10900
Cu758      Cu  0.96228886  0.63502259  0.85096076     0.44200
Cu759      Cu  0.95086108  0.67268611  0.82535890     0.42000
Cu760      Cu  0.90763787  0.60415443  0.82715444     0.43900
N761        N  0.93786431  0.59603455  0.85021445    -0.32700
N762        N  0.91777784  0.58467696  0.84157956    -0.26900
C763        C  0.90563866  0.55948547  0.84399354    -0.03000
C764        C  0.91883830  0.55491680  0.85457304     0.09200
C765        C  0.93906612  0.57840879  0.85832906     0.03000
H766        H  0.88819066  0.54564714  0.83870253     0.10600
H767        H  0.95321741  0.58249338  0.86661886     0.09700
N768        N  0.90342452  0.62796321  0.81276329    -0.34100
N769        N  0.91923460  0.65279949  0.81207162    -0.26300
C770        C  0.91149200  0.66248271  0.80147519    -0.01500
C771        C  0.88985996  0.64281916  0.79524925     0.07100
C772        C  0.88519813  0.62121560  0.80261190     0.05200
H773        H  0.92096141  0.68234640  0.79852952     0.10300
H774        H  0.86980072  0.60201223  0.80070853     0.09100
N775        N  0.30387238  0.01106970  0.83990128    -0.25300
N776        N  0.31776241  0.00714414  0.84938245    -0.33100
C777        C  0.30260023  0.98594648  0.85700867     0.03000
C778        C  0.27809409  0.97611529  0.85206713     0.09100
C779        C  0.27943156  0.99239517  0.84123124    -0.04000
H780        H  0.30901839  0.97815215  0.86541705     0.09700
H781        H  0.26392353  0.99075570  0.83474390     0.10900
Cu782      Cu  0.35682738  0.03009094  0.85120029     0.44200
Cu783      Cu  0.31922585  0.04148286  0.82552573     0.42000
Cu784      Cu  0.38778945  0.08446603  0.82719289     0.43900
N785        N  0.39583307  0.05443366  0.85040920    -0.32700
N786        N  0.40722218  0.07438699  0.84168295    -0.26900
C787        C  0.43242505  0.08648331  0.84407292    -0.03000
C788        C  0.43696602  0.07339667  0.85473450     0.09200
C789        C  0.41345038  0.05328100  0.85856404     0.03000
H790        H  0.44629027  0.10383096  0.83870913     0.10600
H791        H  0.40934760  0.03923379  0.86692100     0.09700
N792        N  0.36397488  0.08876765  0.81285645    -0.34100
N793        N  0.33911477  0.07303549  0.81221397    -0.26300
C794        C  0.32941669  0.08079727  0.80163868    -0.01500
C795        C  0.34909870  0.10236378  0.79537695     0.07100
C796        C  0.37072729  0.10696963  0.80269464     0.05200
H797        H  0.30953476  0.07137419  0.79872501     0.10300
H798        H  0.38995108  0.12229725  0.80074547     0.09100
N799        N  0.18631189  0.87406777  0.87438348    -0.25300
N800        N  0.20217731  0.87974463  0.88546088    -0.33100
C801        C  0.22328526  0.90223979  0.88284128     0.03000
C802        C  0.22048765  0.91104505  0.86954398     0.09100
C803        C  0.19692713  0.89281838  0.86442129    -0.04000
H804        H  0.23956654  0.91134005  0.89001926     0.09700
H805        H  0.18825495  0.89296431  0.85417112     0.10900
Cu806      Cu  0.19502325  0.85661862  0.90356795     0.44200
Cu807      Cu  0.15133391  0.84077262  0.87310128     0.42000
Cu808      Cu  0.13582415  0.79709022  0.90350378     0.43900
N809        N  0.18390554  0.83027892  0.92038479    -0.32700
N810        N  0.16213684  0.80838368  0.92035827    -0.26900
C811        C  0.16068282  0.79540281  0.93252922    -0.03000
C812        C  0.18255512  0.80987081  0.94054936     0.09200
C813        C  0.19689106  0.83182137  0.93257331     0.03000
H814        H  0.14502212  0.77670877  0.93522552     0.10600
H815        H  0.21550017  0.84759442  0.93530974     0.09700
N816        N  0.11262581  0.78978563  0.88540149    -0.34100
N817        N  0.11818341  0.80566666  0.87434766    -0.26300
C818        C  0.09941631  0.79499108  0.86439421    -0.01500
C819        C  0.08129803  0.77136924  0.86949429     0.07100
C820        C  0.09018999  0.76860266  0.88277310     0.05200
H821        H  0.09917836  0.80367352  0.85416768     0.10300
H822        H  0.08117816  0.75230284  0.88993767     0.09100
N823        N  0.00906305  0.30581405  0.33926961    -0.25300
N824        N  0.00567743  0.31984172  0.34890670    -0.33100
C825        C  0.98452556  0.30491934  0.35663479     0.03000
C826        C  0.97414877  0.28040651  0.35160071     0.09100
C827        C  0.99007022  0.28151297  0.34060496    -0.04000
H828        H  0.97718880  0.31149371  0.36521144     0.09700
H829        H  0.98803101  0.26591343  0.33405753     0.10900
Cu830      Cu  0.02943605  0.35873798  0.35087572     0.44200
Cu831      Cu  0.03947257  0.32076769  0.32484362     0.42000
Cu832      Cu  0.08394841  0.38914331  0.32706713     0.43900
N833        N  0.05429720  0.39759979  0.35023497    -0.32700
N834        N  0.07431065  0.40886796  0.34155166    -0.26900
C835        C  0.08652997  0.43407812  0.34391607    -0.03000
C836        C  0.07341374  0.43869972  0.35451457     0.09200
C837        C  0.05320972  0.41526812  0.35833595     0.03000
H838        H  0.10386410  0.44788858  0.33851653     0.10600
H839        H  0.03901984  0.41126672  0.36657834     0.09700
N840        N  0.08795730  0.36505790  0.31286544    -0.34100
N841        N  0.07173569  0.34032480  0.31195622    -0.26300
C842        C  0.07961352  0.33055307  0.30148893    -0.01500
C843        C  0.10176103  0.35006938  0.29560323     0.07100
C844        C  0.10656800  0.37164512  0.30301392     0.05200
H845        H  0.06986063  0.31075839  0.29837449     0.10300
H846        H  0.12228301  0.39075709  0.30130621     0.09100
N847        N  0.68618782  0.98329833  0.33928440    -0.25300
N848        N  0.67205182  0.98680124  0.34878439    -0.33100
C849        C  0.68691224  0.00800503  0.35648438     0.03000
C850        C  0.71149553  0.01828129  0.35157174     0.09100
C851        C  0.71049330  0.00225271  0.34068158    -0.04000
H852        H  0.68026139  0.01540855  0.36498141     0.09700
H853        H  0.72617492  0.00417057  0.33426224     0.10900
Cu854      Cu  0.63313284  0.96298683  0.35065332     0.44200
Cu855      Cu  0.67139495  0.95276377  0.32496990     0.42000
Cu856      Cu  0.60301809  0.90824954  0.32694687     0.43900
N857        N  0.59430527  0.93787856  0.35000997    -0.32700
N858        N  0.58315426  0.91780004  0.34137285    -0.26900
C859        C  0.55793557  0.90541461  0.34375309    -0.03000
C860        C  0.55318556  0.91848881  0.35431287     0.09200
C861        C  0.57654853  0.93883943  0.35809663     0.03000
H862        H  0.54421153  0.88799596  0.33839450     0.10600
H863        H  0.58044809  0.95304265  0.36630815     0.09700
N864        N  0.62728439  0.90430687  0.31286430    -0.34100
N865        N  0.65203388  0.92053246  0.31205473    -0.26300
C866        C  0.66194216  0.91272593  0.30162894    -0.01500
C867        C  0.64249335  0.89062116  0.29566590     0.07100
C868        C  0.62081946  0.88576477  0.30298864     0.05200
H869        H  0.68177499  0.92251825  0.29858022     0.10300
H870        H  0.60171999  0.87007729  0.30119410     0.09100
N871        N  0.87245784  0.18814498  0.37414476    -0.25300
N872        N  0.87781771  0.20418819  0.38508075    -0.33100
C873        C  0.90014129  0.22547506  0.38243403     0.03000
C874        C  0.90920695  0.22265942  0.36924795     0.09100
C875        C  0.89129227  0.19886479  0.36422940    -0.04000
H876        H  0.90891812  0.24190377  0.38950568     0.09700
H877        H  0.89168903  0.19012725  0.35406513     0.10900
Cu878      Cu  0.85445375  0.19711061  0.40298204     0.44200
Cu879      Cu  0.83928671  0.15284910  0.37300016     0.42000
Cu880      Cu  0.79513948  0.13763885  0.40307271     0.43900
N881        N  0.82804716  0.18597542  0.41967066    -0.32700
N882        N  0.80625750  0.16411040  0.41970439    -0.26900
C883        C  0.79331809  0.16255927  0.43188811    -0.03000
C884        C  0.80773718  0.18447070  0.43984016     0.09200
C885        C  0.82957980  0.19895053  0.43183424     0.03000
H886        H  0.77475335  0.14675498  0.43466744     0.10600
H887        H  0.84532504  0.21757491  0.43456565     0.09700
N888        N  0.78801861  0.11429401  0.38517414    -0.34100
N889        N  0.80401525  0.11965477  0.37420953    -0.26300
C890        C  0.79322492  0.10084646  0.36428640    -0.01500
C891        C  0.76943320  0.08295757  0.36933004     0.07100
C892        C  0.76669263  0.09200500  0.38253799     0.05200
H893        H  0.80189220  0.10047462  0.35408807     0.10300
H894        H  0.75027369  0.08325986  0.38962206     0.09100
N895        N  0.27885083  0.34346855  0.30771832    -0.25300
N896        N  0.28632455  0.36769339  0.30956932    -0.33100
C897        C  0.27334138  0.37399825  0.30038333     0.03000
C898        C  0.25699996  0.35274783  0.29240921     0.09100
C899        C  0.26089114  0.33371635  0.29727265    -0.04000
H900        H  0.27558531  0.39263500  0.29963340     0.09700
H901        H  0.25128722  0.31421471  0.29359950     0.10900
Cu902      Cu  0.31379655  0.39124636  0.32443364     0.44200
Cu903      Cu  0.29310171  0.32470907  0.31967759     0.42000
Cu904      Cu  0.34291984  0.36321410  0.34550645     0.43900
N905        N  0.34244002  0.41114572  0.33950107    -0.32700
N906        N  0.35323855  0.40090232  0.34712497    -0.26900
C907        C  0.37058602  0.41848580  0.35616720    -0.03000
C908        C  0.37065395  0.44075096  0.35404570     0.09200
C909        C  0.35262210  0.43554945  0.34348504     0.03000
H910        H  0.38176677  0.41508074  0.36395732     0.10600
H911        H  0.34688001  0.44830978  0.33925326     0.09700
N912        N  0.32837029  0.32477378  0.34262590    -0.34100
N913        N  0.31012069  0.31056316  0.33325916    -0.26300
C914        C  0.30473290  0.28641660  0.33437582    -0.01500
C915        C  0.32039959  0.28561881  0.34490880     0.07100
C916        C  0.33509066  0.31013135  0.34993593     0.05200
H917        H  0.29034242  0.27065589  0.32810387     0.10300
H918        H  0.34939869  0.31682336  0.35839535     0.09100
N919        N  0.28016036  0.92686920  0.30651899    -0.25300
N920        N  0.29032197  0.91236406  0.30689143    -0.33100
C921        C  0.27742557  0.89265015  0.29778108     0.03000
C922        C  0.25832736  0.89492332  0.29143889     0.09100
C923        C  0.26049615  0.91673823  0.29714639    -0.04000
H924        H  0.28152620  0.87767823  0.29603810     0.09700
H925        H  0.24862448  0.92459443  0.29476618     0.10900
Cu926      Cu  0.32043392  0.91900087  0.32017168     0.44200
Cu927      Cu  0.29298171  0.95939514  0.31898690     0.42000
Cu928      Cu  0.34431461  0.97348541  0.34378342     0.43900
N929        N  0.34815713  0.92796440  0.33581161    -0.32700
N930        N  0.35678076  0.94791330  0.34449257    -0.26900
C931        C  0.37339218  0.94773732  0.35398470    -0.03000
C932        C  0.37531487  0.92676130  0.35106686     0.09200
C933        C  0.35906672  0.91452722  0.33955190     0.03000
H934        H  0.38275824  0.96144426  0.36262874     0.10600
H935        H  0.35485725  0.89680919  0.33456766     0.09700
N936        N  0.32780201  0.99550835  0.34195481    -0.34100
N937        N  0.30893860  0.99038062  0.33292616    -0.26300
C938        C  0.30235095  0.00805456  0.33456288    -0.01500
C939        C  0.31786479  0.02497139  0.34509897     0.07100
C940        C  0.33374095  0.01654729  0.34957564     0.05200
H941        H  0.28737155  0.00846488  0.32857033     0.10300
H942        H  0.34843754  0.02497352  0.35780054     0.09100
N943        N  0.32550598  0.19227908  0.36742082    -0.25300
N944        N  0.33438988  0.20717718  0.37901423    -0.33100
C945        C  0.33426572  0.22865968  0.37641295     0.03000
C946        C  0.32487582  0.22718517  0.36256804     0.09100
C947        C  0.31949951  0.20397929  0.35711086    -0.04000
H948        H  0.34084336  0.24430607  0.38399043     0.09700
H949        H  0.31206894  0.19627702  0.34642305     0.10900
Cu950      Cu  0.34741106  0.19867174  0.39774709     0.44200
Cu951      Cu  0.32277936  0.15712323  0.36600685     0.42000
Cu952      Cu  0.34773630  0.14058114  0.39742409     0.43900
N953        N  0.36137408  0.18727458  0.41481621    -0.32700
N954        N  0.36161485  0.16586674  0.41465823    -0.26900
C955        C  0.37267687  0.16423948  0.42694985    -0.03000
C956        C  0.37961370  0.18564102  0.43517222     0.09200
C957        C  0.37227617  0.19989585  0.42721711     0.03000
H958        H  0.37585021  0.14888414  0.42954218     0.10600
H959        H  0.37511932  0.21828585  0.43005339     0.09700
N960        N  0.33317192  0.11816408  0.37902703    -0.34100
N961        N  0.32398173  0.12392538  0.36755939    -0.26300
C962        C  0.31684476  0.10555241  0.35745562    -0.01500
C963        C  0.32180744  0.08756220  0.36293291     0.07100
C964        C  0.33214219  0.09608701  0.37655629     0.05200
H965        H  0.30913807  0.10558946  0.34684483     0.10300
H966        H  0.33888438  0.08718443  0.38403409     0.09100
N967        N  0.42591576  0.85679871  0.41997481    -0.34600
N968        N  0.46934386  0.87394103  0.40047915    -0.55200
N969        N  0.44918238  0.89743938  0.38139300    -0.34600
N970        N  0.40453722  0.87806010  0.40012766    -0.55200
C971        C  0.43648231  0.84396146  0.42561828     0.29000
C972        C  0.40204707  0.84601671  0.42536453     0.29000
C973        C  0.46854946  0.90003152  0.37302530     0.29000
C974        C  0.43402334  0.90199255  0.37278349     0.29000
C975        C  0.47689347  0.86438112  0.41134194     0.37600
C976        C  0.48917080  0.88585426  0.39119441     0.37600
C977        C  0.38693030  0.87014889  0.41082643     0.37600
C978        C  0.39920177  0.89158946  0.39067225     0.37600
C979        C  0.41939125  0.82531044  0.43503917    -0.19900
C980        C  0.39769591  0.82659129  0.43487046    -0.19900
C981        C  0.46601845  0.90696095  0.35900424    -0.19900
C982        C  0.44423602  0.90816942  0.35884530    -0.19900
C983        C  0.50155852  0.87006903  0.40888833    -0.20900
C984        C  0.50934660  0.88368222  0.39615673    -0.20900
C985        C  0.37028727  0.87864679  0.40814683    -0.20900
C986        C  0.37806442  0.89224485  0.39540314    -0.20900
C987        C  0.46125563  0.84885222  0.42279731    -0.16300
C988        C  0.38419942  0.85344170  0.42221358    -0.16300
C989        C  0.41169629  0.90151959  0.37723320    -0.16300
C990        C  0.48879628  0.89700327  0.37776692    -0.16300
H991        H  0.42214939  0.81197283  0.44131509     0.16600
H992        H  0.38059122  0.81443898  0.44100072     0.16600
H993        H  0.47850404  0.91065454  0.34980849     0.16600
H994        H  0.43675930  0.91301001  0.34950231     0.16600
H995        H  0.51265569  0.86461406  0.41545626     0.14900
H996        H  0.52764235  0.89075815  0.39101776     0.14900
H997        H  0.35392141  0.87497974  0.41454172     0.14900
H998        H  0.36883966  0.90111623  0.39007040     0.14900
H999        H  0.43520359  0.87329408  0.41383173     0.28200
H1000       H  0.44768455  0.89504060  0.39260834     0.28200
N1001       N  0.50637312  0.70667906  0.46188593    -0.25300
N1002       N  0.49168436  0.70972159  0.45256993    -0.33100
C1003       C  0.48104483  0.68989358  0.44337258     0.03000
C1004       C  0.48949223  0.67372101  0.44710408     0.09100
C1005       C  0.50549107  0.68477748  0.45886627    -0.04000
H1006       H  0.46828858  0.68757069  0.43456044     0.09700
H1007       H  0.51579808  0.67758450  0.46474022     0.10900
Cu1008     Cu  0.48762732  0.74116166  0.45227861     0.44200
Cu1009     Cu  0.52719803  0.73294840  0.47791469     0.42000
Cu1010     Cu  0.52613474  0.79202587  0.47716985     0.43900
N1011       N  0.48911493  0.77560237  0.45225261    -0.32700
N1012       N  0.50348594  0.79449015  0.46121735    -0.26900
C1013       C  0.50119737  0.81458242  0.45784856    -0.03000
C1014       C  0.48460630  0.80783264  0.44625006     0.09200
C1015       C  0.47728472  0.78309901  0.44295712     0.03000
H1016       H  0.51118052  0.83279601  0.46327328     0.10600
H1017       H  0.46475750  0.77156870  0.43425262     0.09700
N1018       N  0.54675429  0.78419111  0.49202754    -0.34100
N1019       N  0.54697543  0.76274008  0.49229613    -0.26300
C1020       C  0.56184331  0.76359489  0.50331715    -0.01500
C1021       C  0.57138911  0.78663166  0.51023291     0.07100
C1022       C  0.56151888  0.79927240  0.50289540     0.05200
H1023       H  0.56522461  0.74845689  0.50613911     0.10300
H1024       H  0.56456775  0.81787667  0.50534476     0.09100
N1025       N  0.13478168  0.56602513  0.42011492    -0.34600
N1026       N  0.11773527  0.52258801  0.40063891    -0.55200
N1027       N  0.09436387  0.54277738  0.38144170    -0.34600
N1028       N  0.11368773  0.58745911  0.40014054    -0.55200
C1029       C  0.14751260  0.55541672  0.42586296     0.29000
C1030       C  0.14542954  0.58983643  0.42556269     0.29000
C1031       C  0.09160542  0.52328106  0.37314114     0.29000
C1032       C  0.08970579  0.55783709  0.37281234     0.29000
C1033       C  0.12726093  0.51505755  0.41153256     0.37600
C1034       C  0.10582837  0.50274935  0.39136432     0.37600
C1035       C  0.12160726  0.60510871  0.41081273     0.37600
C1036       C  0.10032192  0.59286867  0.39059742     0.37600
C1037       C  0.16593873  0.57241696  0.43542081    -0.19900
C1038       C  0.16463621  0.59409472  0.43522654    -0.19900
C1039       C  0.08445452  0.52562758  0.35914176    -0.19900
C1040       C  0.08328173  0.54742232  0.35892834    -0.19900
C1041       C  0.12155180  0.49038685  0.40911012    -0.20900
C1042       C  0.10796300  0.48257905  0.39636884    -0.20900
C1043       C  0.11329293  0.62186637  0.40802079    -0.20900
C1044       C  0.09979996  0.61411344  0.39523981    -0.20900
C1045       C  0.14273674  0.53069281  0.42300909    -0.16300
C1046       C  0.13811462  0.60773829  0.42230614    -0.16300
C1047       C  0.09031455  0.58026201  0.37719069    -0.16300
C1048       C  0.09467214  0.50307657  0.37792369    -0.16300
H1049       H  0.17914382  0.56961193  0.44180661     0.16600
H1050       H  0.17664560  0.61113481  0.44143874     0.16600
H1051       H  0.08058069  0.51300674  0.34999541     0.16600
H1052       H  0.07829951  0.55477140  0.34958425     0.16600
H1053       H  0.12695694  0.47928864  0.41571268     0.14900
H1054       H  0.10086474  0.46426582  0.39125648     0.14900
H1055       H  0.11699326  0.63827749  0.41437436     0.14900
H1056       H  0.09105523  0.62340174  0.38983683     0.14900
H1057       H  0.11843565  0.55680743  0.41384050     0.28200
H1058       H  0.09695789  0.54443648  0.39264002     0.28200
N1059       N  0.28235748  0.80004236  0.45742997    -0.25300
N1060       N  0.27846692  0.78137696  0.44857339    -0.33100
C1061       C  0.29869703  0.78936085  0.43979493     0.03000
C1062       C  0.31608910  0.81419643  0.44329957     0.09100
C1063       C  0.30527458  0.82049647  0.45450009    -0.04000
H1064       H  0.30053249  0.77792079  0.43146419     0.09700
H1065       H  0.31343109  0.83848731  0.46013388     0.10900
Cu1066     Cu  0.24564871  0.74611120  0.44844910     0.44200
Cu1067     Cu  0.25618356  0.79620010  0.47315294     0.42000
Cu1068     Cu  0.19568216  0.73581064  0.47321823     0.43900
N1069       N  0.21028716  0.71340981  0.44860006    -0.32700
N1070       N  0.19167689  0.70958992  0.45748882    -0.26900
C1071       C  0.17115829  0.68670637  0.45458379    -0.03000
C1072       C  0.17735874  0.67584385  0.44336338     0.09200
C1073       C  0.20220101  0.69317174  0.43982309     0.03000
H1074       H  0.15319652  0.67860035  0.46025216     0.10600
H1075       H  0.21358620  0.69127592  0.43147856     0.09700
N1076       N  0.20562730  0.76457051  0.48842532    -0.34100
N1077       N  0.22750650  0.78640817  0.48840310    -0.26300
C1078       C  0.22819829  0.80024384  0.49997691    -0.01500
C1079       C  0.20574364  0.78644927  0.50757236     0.07100
C1080       C  0.19186026  0.76397704  0.50001237     0.05200
H1081       H  0.24405760  0.81876253  0.50277219     0.10300
H1082       H  0.17332753  0.74816994  0.50284187     0.09100
N1083       N  0.42731907  0.56455057  0.42232041    -0.34600
N1084       N  0.40237401  0.52159353  0.40234671    -0.55200
N1085       N  0.44639936  0.54561711  0.38317067    -0.34600
N1086       N  0.47022143  0.58969269  0.40227765    -0.55200
C1087       C  0.40373365  0.55209914  0.42818011     0.29000
C1088       C  0.43967974  0.58813833  0.42816398     0.29000
C1089       C  0.43014423  0.52587907  0.37468146     0.29000
C1090       C  0.46606392  0.56191662  0.37464786     0.29000
C1091       C  0.38515885  0.51243988  0.41326752     0.37600
C1092       C  0.39552968  0.50224231  0.39290584     0.37600
C1093       C  0.47930827  0.60693182  0.41318441     0.37600
C1094       C  0.48956653  0.59666406  0.39280487     0.37600
C1095       C  0.40141721  0.56768243  0.43823515    -0.19900
C1096       C  0.42404792  0.59036873  0.43822705    -0.19900
C1097       C  0.43976075  0.52951791  0.36062078    -0.19900
C1098       C  0.46242568  0.55225403  0.36060025    -0.19900
C1099       C  0.36711701  0.48721597  0.41068042    -0.20900
C1100       C  0.37372505  0.48072562  0.39781474    -0.20900
C1101       C  0.50447267  0.62512653  0.41054746    -0.20900
C1102       C  0.51099929  0.61858674  0.39767032    -0.20900
C1103       C  0.38433369  0.52696466  0.42494791    -0.16300
C1104       C  0.46477424  0.60762027  0.42490923    -0.16300
C1105       C  0.48776262  0.58460441  0.37936003    -0.16300
C1106       C  0.40754896  0.50411734  0.37943564    -0.16300
H1107       H  0.38504227  0.56328443  0.44483862     0.16600
H1108       H  0.42837309  0.60672675  0.44482092     0.16600
H1109       H  0.43140427  0.51701667  0.35134596     0.16600
H1110       H  0.47487806  0.56063153  0.35130663     0.16600
H1111       H  0.35072629  0.47485973  0.41728596     0.14900
H1112       H  0.36336714  0.46237811  0.39255212     0.14900
H1113       H  0.51676907  0.64156836  0.41713093     0.14900
H1114       H  0.52931708  0.62905282  0.39237747     0.14900
H1115       H  0.43517334  0.55677316  0.41567146     0.28200
H1116       H  0.44556685  0.54647995  0.39439661     0.28200
N1117       N  0.28504178  0.48528984  0.46174758    -0.25300
N1118       N  0.28198245  0.49991402  0.45239125    -0.33100
C1119       C  0.30183022  0.51051860  0.44319905     0.03000
C1120       C  0.31802550  0.50211363  0.44697731     0.09100
C1121       C  0.30696353  0.48617932  0.45876043    -0.04000
H1122       H  0.30416967  0.52324969  0.43437137     0.09700
H1123       H  0.31418096  0.47594053  0.46468246     0.10900
Cu1124     Cu  0.25053836  0.50401341  0.45207904     0.44200
Cu1125     Cu  0.25882673  0.46455201  0.47781567     0.42000
Cu1126     Cu  0.19980810  0.46565326  0.47711454     0.43900
N1127       N  0.21611847  0.50263587  0.45217321    -0.32700
N1128       N  0.19729847  0.48833746  0.46119784    -0.26900
C1129       C  0.17722048  0.49071926  0.45792264    -0.03000
C1130       C  0.18389878  0.50729518  0.44632215     0.09200
C1131       C  0.20858383  0.51450772  0.44293139     0.03000
H1132       H  0.15905912  0.48080962  0.46341367     0.10600
H1133       H  0.22005530  0.52699924  0.43419978     0.09700
N1134       N  0.20761005  0.44497774  0.49195135    -0.34100
N1135       N  0.22906582  0.44475413  0.49221094    -0.26300
C1136       C  0.22822395  0.42989183  0.50322962    -0.01500
C1137       C  0.20518439  0.42034994  0.51015275     0.07100
C1138       C  0.19253407  0.43021798  0.50282212     0.05200
H1139       H  0.24337809  0.42652797  0.50605125     0.10300
H1140       H  0.17393708  0.42719139  0.50528811     0.09100
N1141       N  0.64869698  0.71340773  0.30785503    -0.25300
N1142       N  0.62445536  0.70592737  0.30967016    -0.33100
C1143       C  0.61821897  0.71901910  0.30052959     0.03000
C1144       C  0.63953471  0.73543568  0.29262281     0.09100
C1145       C  0.65853011  0.73147577  0.29747645    -0.04000
H1146       H  0.59957896  0.71677738  0.29975387     0.09700
H1147       H  0.67805691  0.74109221  0.29383540     0.10900
Cu1148     Cu  0.60079614  0.67826675  0.32440845     0.44200
Cu1149     Cu  0.66736537  0.69901271  0.31976913     0.42000
Cu1150     Cu  0.62870355  0.64881979  0.34535664     0.43900
N1151       N  0.58082302  0.64950352  0.33939168    -0.32700
N1152       N  0.59099757  0.63858737  0.34696986    -0.26900
C1153       C  0.57336979  0.62125888  0.35600545    -0.03000
C1154       C  0.55115349  0.62132923  0.35392725     0.09200
C1155       C  0.55643203  0.63941912  0.34339630     0.03000
H1156       H  0.57672208  0.61001948  0.36377733     0.10600
H1157       H  0.54374337  0.64529335  0.33921388     0.09700
N1158       N  0.66723169  0.66353321  0.34258437    -0.34100
N1159       N  0.68149350  0.68193614  0.33331214    -0.26300
C1160       C  0.70567757  0.68743413  0.33449322    -0.01500
C1161       C  0.70645407  0.67167941  0.34496984     0.07100
C1162       C  0.68188472  0.65681999  0.34989566     0.05200
H1163       H  0.72147425  0.70195028  0.32829875     0.10300
H1164       H  0.67516049  0.64239946  0.35828793     0.09100
N1165       N  0.06532337  0.71193802  0.30643873    -0.25300
N1166       N  0.07983495  0.70178231  0.30684462    -0.33100
C1167       C  0.09959593  0.71468589  0.29776172     0.03000
C1168       C  0.09734293  0.73377668  0.29140096     0.09100
C1169       C  0.07549294  0.73159884  0.29706873    -0.04000
H1170       H  0.11457768  0.71058561  0.29604364     0.09700
H1171       H  0.06764113  0.74346529  0.29466586     0.10900
Cu1172     Cu  0.07312136  0.67162711  0.32010417     0.44200
Cu1173     Cu  0.03275998  0.69915416  0.31887470     0.42000
Cu1174     Cu  0.01851498  0.64768778  0.34359432     0.43900
N1175       N  0.06399029  0.64374136  0.33565959    -0.32700
N1176       N  0.04397349  0.63508050  0.34429362    -0.26900
C1177       C  0.04406122  0.61840580  0.35376789    -0.03000
C1178       C  0.06505461  0.61647980  0.35088941     0.09200
C1179       C  0.07738588  0.63279168  0.33941346     0.03000
H1180       H  0.03031129  0.60903758  0.36239364     0.10600
H1181       H  0.09516480  0.63704962  0.33448455     0.09700
N1182       N  0.99663367  0.66435876  0.34183975    -0.34100
N1183       N  0.00180451  0.68326502  0.33284136    -0.26300
C1184       C  0.98415311  0.68988422  0.33450140    -0.01500
C1185       C  0.96721076  0.67434184  0.34502078     0.07100
C1186       C  0.97559433  0.65842293  0.34946335     0.05200
H1187       H  0.98374774  0.70486830  0.32851657     0.10300
H1188       H  0.96711072  0.64366274  0.35764686     0.09100
N1189       N  0.79966280  0.66622064  0.36741624    -0.25300
N1190       N  0.78471336  0.65721947  0.37898427    -0.33100
C1191       C  0.76326788  0.65744396  0.37640903     0.03000
C1192       C  0.76482800  0.66703018  0.36260927     0.09100
C1193       C  0.78804195  0.67241004  0.35715078    -0.04000
H1194       H  0.74759290  0.65081376  0.38397409     0.09700
H1195       H  0.79580208  0.67996474  0.34649055     0.10900
Cu1196     Cu  0.79317428  0.64400834  0.39765853     0.44200
Cu1197     Cu  0.83477730  0.66886400  0.36598061     0.42000
Cu1198     Cu  0.85134260  0.64374362  0.39731217     0.43900
N1199       N  0.80464266  0.63009699  0.41472399    -0.32700
N1200       N  0.82607720  0.62989217  0.41456203    -0.26900
C1201       C  0.82773811  0.61886161  0.42685727    -0.03000
C1202       C  0.80633051  0.61190585  0.43508536     0.09200
C1203       C  0.79203904  0.61920230  0.42713108     0.03000
H1204       H  0.84311304  0.61570845  0.42944406     0.10600
H1205       H  0.77363104  0.61632768  0.42997000     0.09700
N1206       N  0.87371858  0.65834281  0.37889832    -0.34100
N1207       N  0.86794553  0.66760337  0.36746989    -0.26300
C1208       C  0.88633399  0.67484999  0.35736335    -0.01500
C1209       C  0.90434927  0.66988573  0.36279679     0.07100
C1210       C  0.89582368  0.65943231  0.37639677     0.05200
H1211       H  0.88631368  0.68267765  0.34679043     0.10300
H1212       H  0.90477278  0.65270269  0.38384923     0.09100
O1213       O  0.18899066  0.32800557  0.25718653    -0.70900
O1214       O  0.14111847  0.32679611  0.22675480    -0.71900
O1215       O  0.18787750  0.32773367  0.22620412    -0.60500
O1216       O  0.14210917  0.32698076  0.25785217    -0.69000
O1217       O  0.16314453  0.36914367  0.25773701    -0.68500
O1218       O  0.20884231  0.36989770  0.22608948    -0.59800
O1219       O  0.16214543  0.36896411  0.22670481    -0.72300
O1220       O  0.20994984  0.37017071  0.25704333    -0.71000
Cu1221     Cu  0.16425306  0.32588676  0.24201089     1.04600
Cu1222     Cu  0.18672400  0.37102225  0.24189839     1.04300
C1223       C  0.20703068  0.34929833  0.26181240     0.95300
C1224       C  0.14432981  0.34773336  0.22187856     0.94400
C1225       C  0.20553951  0.34892624  0.22122484     0.86500
C1226       C  0.14555437  0.34796971  0.26278235     0.92800
O1227       O  0.66456301  0.80417386  0.22636516    -0.70900
O1228       O  0.66559231  0.85030763  0.25786086    -0.71900
O1229       O  0.66441790  0.80337471  0.25734569    -0.60500
O1230       O  0.66565001  0.85100428  0.22675425    -0.69000
O1231       O  0.62347033  0.83009695  0.22676677    -0.68500
O1232       O  0.62223912  0.78250732  0.25724454    -0.59800
O1233       O  0.62341625  0.82935873  0.25780671    -0.72300
O1234       O  0.62238771  0.78332900  0.22629549    -0.71000
Cu1235     Cu  0.66654902  0.82798593  0.24208941     1.04600
Cu1236     Cu  0.62140012  0.80562683  0.24203370     1.04300
C1237       C  0.64332181  0.78650399  0.22143899     0.95300
C1238       C  0.64463667  0.84693913  0.26281095     0.94400
C1239       C  0.64311236  0.78541272  0.26201334     0.86500
C1240       C  0.64471053  0.84781570  0.22188503     0.92800
N1241       N  0.00908053  0.30640825  0.14458469    -0.25300
N1242       N  0.00572468  0.32062822  0.13506224    -0.33100
C1243       C  0.98461417  0.30583060  0.12725456     0.03000
C1244       C  0.97424944  0.28120208  0.13212285     0.09100
C1245       C  0.99013434  0.28212776  0.14309530    -0.04000
H1246       H  0.97731378  0.31255720  0.11873060     0.09700
H1247       H  0.98809867  0.26640626  0.14952774     0.10900
Cu1248     Cu  0.02960521  0.35958430  0.13334152     0.44200
Cu1249     Cu  0.03935339  0.32101301  0.15910506     0.42000
Cu1250     Cu  0.08429607  0.38924694  0.15706860     0.43900
N1251       N  0.05486951  0.39838684  0.13408511    -0.32700
N1252       N  0.07496657  0.40934260  0.14272497    -0.26900
C1253       C  0.08752864  0.43457157  0.14041694    -0.03000
C1254       C  0.07455315  0.43954643  0.12989768     0.09200
C1255       C  0.05407375  0.41630233  0.12606005     0.03000
H1256       H  0.10500763  0.44814330  0.14578914     0.10600
H1257       H  0.03992028  0.41258932  0.11783986     0.09700
N1258       N  0.08779910  0.36496997  0.17132602    -0.34100
N1259       N  0.07137962  0.34028012  0.17220395    -0.26300
C1260       C  0.07880130  0.33040363  0.18286543    -0.01500
C1261       C  0.10084237  0.34982078  0.18890557     0.07100
C1262       C  0.10608887  0.37143236  0.18137861     0.05200
H1263       H  0.06877878  0.31062514  0.18603020     0.10300
H1264       H  0.12182530  0.39050055  0.18317687     0.09100
N1265       N  0.68570123  0.98320660  0.14475085    -0.25300
N1266       N  0.67142115  0.98654215  0.13525941    -0.33100
C1267       C  0.68613693  0.00778148  0.12753852     0.03000
C1268       C  0.71077237  0.01825556  0.13243128     0.09100
C1269       C  0.70993765  0.00229708  0.14332736    -0.04000
H1270       H  0.67935716  0.01506682  0.11903560     0.09700
H1271       H  0.72569949  0.00435122  0.14973186     0.10900
Cu1272     Cu  0.63249990  0.96242338  0.13341904     0.44200
Cu1273     Cu  0.67126188  0.95272638  0.15911357     0.42000
Cu1274     Cu  0.60302308  0.90775880  0.15713287     0.43900
N1275       N  0.59371451  0.93697613  0.13409974    -0.32700
N1276       N  0.58282874  0.91690471  0.14275615    -0.26900
C1277       C  0.55758802  0.90425433  0.14045933    -0.03000
C1278       C  0.55252777  0.91714528  0.12993071     0.09200
C1279       C  0.57573669  0.93766528  0.12607176     0.03000
H1280       H  0.54406193  0.88679750  0.14586524     0.10600
H1281       H  0.57937792  0.95180702  0.11786080     0.09700
N1282       N  0.62737446  0.90422058  0.17131321    -0.34100
N1283       N  0.65208330  0.92060893  0.17214536    -0.26300
C1284       C  0.66201295  0.91315190  0.18275854    -0.01500
C1285       C  0.64260718  0.89112523  0.18881746     0.07100
C1286       C  0.62094942  0.88592371  0.18135118     0.05200
H1287       H  0.68180936  0.92316975  0.18589950     0.10300
H1288       H  0.60187211  0.87022476  0.18318948     0.09100
N1289       N  0.87268843  0.18805649  0.10999528    -0.25300
N1290       N  0.87815901  0.20358743  0.09876377    -0.33100
C1291       C  0.90050273  0.22495898  0.10121300     0.03000
C1292       C  0.90950631  0.22278407  0.11457523     0.09100
C1293       C  0.89151155  0.19924226  0.11990860    -0.04000
H1294       H  0.90930650  0.24105400  0.09389233     0.09700
H1295       H  0.89182949  0.19102186  0.13029115     0.10900
Cu1296     Cu  0.85497568  0.19605289  0.08070764     0.44200
Cu1297     Cu  0.83933338  0.15282579  0.11150625     0.42000
Cu1298     Cu  0.79596326  0.13710914  0.08071346     0.43900
N1299       N  0.82878240  0.18511442  0.06389630    -0.32700
N1300       N  0.80695795  0.16330105  0.06388505    -0.26900
C1301       C  0.79399001  0.16180389  0.05170601    -0.03000
C1302       C  0.80843462  0.18371679  0.04372780     0.09200
C1303       C  0.83032647  0.19812003  0.05172945     0.03000
H1304       H  0.77536837  0.14606372  0.04895807     0.10600
H1305       H  0.84609107  0.21673722  0.04900368     0.09700
N1306       N  0.78838013  0.11411650  0.09887779    -0.34100
N1307       N  0.80395250  0.11962568  0.11009653    -0.26300
C1308       C  0.79272815  0.10092984  0.12007836    -0.01500
C1309       C  0.76911472  0.08297560  0.11480890     0.07100
C1310       C  0.76693967  0.09186979  0.10140870     0.05200
H1311       H  0.80098966  0.10065623  0.13045556     0.10300
H1312       H  0.75081233  0.08304237  0.09410817     0.09100
N1313       N  0.27602822  0.34194197  0.17487081    -0.25300
N1314       N  0.28527950  0.36667826  0.17389795    -0.33100
C1315       C  0.27231806  0.37316463  0.18297429     0.03000
C1316       C  0.25411577  0.35150960  0.18994916     0.09100
C1317       C  0.25691010  0.33204047  0.18462148    -0.04000
H1318       H  0.27598822  0.39225279  0.18441983     0.09700
H1319       H  0.24599824  0.31221091  0.18764013     0.10900
Cu1320     Cu  0.31508919  0.39075035  0.16034061     0.44200
Cu1321     Cu  0.28997759  0.32288106  0.16294677     0.42000
Cu1322     Cu  0.34283587  0.36225856  0.13876718     0.43900
N1323       N  0.34408345  0.41082362  0.14544299    -0.32700
N1324       N  0.35429736  0.40034934  0.13751404    -0.26900
C1325       C  0.37137893  0.41784013  0.12830260    -0.03000
C1326       C  0.37189299  0.44030749  0.13062749     0.09200
C1327       C  0.35439495  0.43527815  0.14150255     0.03000
H1328       H  0.38190306  0.41419070  0.12017972     0.10600
H1329       H  0.34887463  0.44812622  0.14585850     0.09700
N1330       N  0.32686796  0.32342276  0.14096788    -0.34100
N1331       N  0.30757186  0.30894502  0.14968522    -0.26300
C1332       C  0.30165258  0.28467196  0.14823397    -0.01500
C1333       C  0.31805203  0.28406082  0.13816271     0.07100
C1334       C  0.33372602  0.30881476  0.13375442     0.05200
H1335       H  0.28645756  0.26871898  0.15398977     0.10300
H1336       H  0.34885447  0.31571814  0.12579514     0.09100
N1337       N  0.27892782  0.92584782  0.17540817    -0.25300
N1338       N  0.28951264  0.91172478  0.17516023    -0.33100
C1339       C  0.27728334  0.89236748  0.18457710     0.03000
C1340       C  0.25817056  0.89447163  0.19100938     0.09100
C1341       C  0.25963193  0.91581251  0.18502477    -0.04000
H1342       H  0.28184342  0.87774769  0.18646447     0.09700
H1343       H  0.24750916  0.92338605  0.18737266     0.10900
Cu1344     Cu  0.31945140  0.91852277  0.16178107     0.44200
Cu1345     Cu  0.29088550  0.95781307  0.16249604     0.42000
Cu1346     Cu  0.34314745  0.97286631  0.13810563     0.43900
N1347       N  0.34776508  0.92800212  0.14655738    -0.32700
N1348       N  0.35643032  0.94793059  0.13785219    -0.26900
C1349       C  0.37358485  0.94807571  0.12867536    -0.03000
C1350       C  0.37578261  0.92732682  0.13184992     0.09200
C1351       C  0.35915297  0.91490092  0.14316208     0.03000
H1352       H  0.38304359  0.96175565  0.12002726     0.10600
H1353       H  0.35495168  0.89722010  0.14820506     0.09700
N1354       N  0.32596730  0.99431607  0.13969206    -0.34100
N1355       N  0.30678142  0.98883889  0.14853050    -0.26300
C1356       C  0.29996706  0.00633554  0.14679803    -0.01500
C1357       C  0.31566222  0.02349606  0.13640125     0.07100
C1358       C  0.33188323  0.01539753  0.13210941     0.05200
H1359       H  0.28474771  0.00649553  0.15265504     0.10300
H1360       H  0.34683291  0.02409988  0.12404888     0.09100
N1361       N  0.32390317  0.19138833  0.11520566    -0.25300
N1362       N  0.33299018  0.20661839  0.10375150    -0.33100
C1363       C  0.33278385  0.22800682  0.10651372     0.03000
C1364       C  0.32310275  0.22612086  0.12031177     0.09100
C1365       C  0.31765933  0.20277398  0.12558086    -0.04000
H1366       H  0.33936061  0.24380605  0.09904215     0.09700
H1367       H  0.30992847  0.19472118  0.13616501     0.10900
Cu1368     Cu  0.34585247  0.19847962  0.08484778     0.44200
Cu1369     Cu  0.32092726  0.15607949  0.11629745     0.42000
Cu1370     Cu  0.34432012  0.13942862  0.08431587     0.43900
N1371       N  0.35875114  0.18684081  0.06739157    -0.32700
N1372       N  0.35824660  0.16505376  0.06722498    -0.26900
C1373       C  0.36871418  0.16329150  0.05473073    -0.03000
C1374       C  0.37603299  0.18499089  0.04671554     0.09200
C1375       C  0.36954700  0.19957537  0.05500041     0.03000
H1376       H  0.37125405  0.14763678  0.05186300     0.10600
H1377       H  0.37290267  0.21824598  0.05239355     0.09700
N1378       N  0.33020991  0.11679753  0.10268679    -0.34100
N1379       N  0.32160178  0.12263766  0.11437818    -0.26300
C1380       C  0.31471363  0.10419925  0.12442064    -0.01500
C1381       C  0.31922543  0.08607137  0.11867768     0.07100
C1382       C  0.32904757  0.09459590  0.10495235     0.05200
H1383       H  0.30752651  0.10430325  0.13517801     0.10300
H1384       H  0.33540449  0.08563260  0.09727640     0.09100
N1385       N  0.28272403  0.80003436  0.02584212    -0.25300
N1386       N  0.27940203  0.78062322  0.03384222    -0.33100
C1387       C  0.29978725  0.78811474  0.04243657     0.03000
C1388       C  0.31671290  0.81341745  0.03971908     0.09100
C1389       C  0.30543961  0.82049487  0.02915953    -0.04000
H1390       H  0.30192395  0.77608953  0.05022827     0.09700
H1391       H  0.31303905  0.83909338  0.02433215     0.10900
Cu1392     Cu  0.24675311  0.74519550  0.03345111     0.44200
Cu1393     Cu  0.25565834  0.79720541  0.01100272     0.42000
Cu1394     Cu  0.19487241  0.73648836  0.01094427     0.43900
N1395       N  0.21131941  0.71254179  0.03373707    -0.32700
N1396       N  0.19194300  0.70929984  0.02572560    -0.26900
C1397       C  0.17143973  0.68659063  0.02900240    -0.03000
C1398       C  0.17845123  0.67523401  0.03954614     0.09200
C1399       C  0.20376432  0.69210818  0.04229484     0.03000
H1400       H  0.15284890  0.67906076  0.02416875     0.10600
H1401       H  0.21574336  0.68991935  0.05009922     0.09700
N1402       N  0.20400856  0.76633327  0.99658214    -0.34100
N1403       N  0.22589323  0.78818608  0.99660318    -0.26300
C1404       C  0.22592943  0.80264759  0.98553509    -0.01500
C1405       C  0.20305429  0.78928565  0.97826596     0.07100
C1406       C  0.18961314  0.76638650  0.98549884     0.05200
H1407       H  0.24169287  0.82125399  0.98278954     0.10300
H1408       H  0.17099895  0.75066730  0.98271718     0.09100
N1409       N  0.13601454  0.56610174  0.06386723    -0.34600
N1410       N  0.11462438  0.58749035  0.08347287    -0.55200
N1411       N  0.09569550  0.54320106  0.10246940    -0.34600
N1412       N  0.11912787  0.52296011  0.08356600    -0.55200
C1413       C  0.14672431  0.58987108  0.05833636     0.29000
C1414       C  0.14865174  0.55536395  0.05819367     0.29000
C1415       C  0.09137918  0.55858017  0.11099075     0.29000
C1416       C  0.09387250  0.52439623  0.11106300     0.29000
C1417       C  0.12242913  0.60495843  0.07269430     0.37600
C1418       C  0.10065529  0.59254203  0.09273184     0.37600
C1419       C  0.12810819  0.51508159  0.07258101     0.37600
C1420       C  0.10705292  0.50316316  0.09285117     0.37600
C1421       C  0.16592430  0.59398529  0.04871494    -0.19900
C1422       C  0.16711467  0.57223571  0.04861128    -0.19900
C1423       C  0.08626990  0.54916285  0.12512962    -0.19900
C1424       C  0.08783795  0.52758639  0.12517116    -0.19900
C1425       C  0.11344427  0.62125575  0.07513464    -0.20900
C1426       C  0.09958408  0.61335243  0.08779221    -0.20900
C1427       C  0.12189073  0.49023190  0.07495919    -0.20900
C1428       C  0.10852967  0.48266850  0.08777706    -0.20900
C1429       C  0.13930345  0.60775204  0.06139343    -0.16300
C1430       C  0.14360950  0.53056293  0.06108257    -0.16300
C1431       C  0.09647732  0.50390653  0.10638706    -0.16300
C1432       C  0.09094057  0.58027736  0.10624898    -0.16300
H1433       H  0.17793332  0.61093740  0.04243070     0.16600
H1434       H  0.18022515  0.56927168  0.04224718     0.16600
H1435       H  0.08184270  0.55700190  0.13445869     0.16600
H1436       H  0.08485271  0.51560507  0.13452743     0.16600
H1437       H  0.11690684  0.63743824  0.06862102     0.14900
H1438       H  0.09034670  0.62234114  0.09296090     0.14900
H1439       H  0.12682216  0.47885680  0.06827865     0.14900
H1440       H  0.10116797  0.46431606  0.09289786     0.14900
H1441       H  0.11962496  0.55691787  0.07010846     0.28200
H1442       H  0.09717052  0.54403791  0.09118716     0.28200
N1443       N  0.50808583  0.70684801  0.02266073    -0.25300
N1444       N  0.49385337  0.71024784  0.03213344    -0.33100
C1445       C  0.48278388  0.69026947  0.04120387     0.03000
C1446       C  0.49045626  0.67359964  0.03723819     0.09100
C1447       C  0.50646310  0.68452224  0.02546141    -0.04000
H1448       H  0.47029967  0.68820470  0.05011117     0.09700
H1449       H  0.51632257  0.67698495  0.01945814     0.10900
Cu1450     Cu  0.49080208  0.74220676  0.03283365     0.44200
Cu1451     Cu  0.52930011  0.73325839  0.00674430     0.42000
Cu1452     Cu  0.52891399  0.79275013  0.00783079     0.43900
N1453       N  0.49219397  0.77654316  0.03282945    -0.32700
N1454       N  0.50635082  0.79533096  0.02376092    -0.26900
C1455       C  0.50352396  0.81518490  0.02685522    -0.03000
C1456       C  0.48679640  0.80835386  0.03838216     0.09200
C1457       C  0.47998068  0.78385204  0.04193037     0.03000
H1458       H  0.51306054  0.83321619  0.02121404     0.10600
H1459       H  0.46732290  0.77226415  0.05057451     0.09700
N1460       N  0.54911476  0.78472770  0.99280347    -0.34100
N1461       N  0.54910377  0.76316025  0.99239345    -0.26300
C1462       C  0.56370010  0.76395816  0.98123680    -0.01500
C1463       C  0.57329685  0.78707133  0.97438408     0.07100
C1464       C  0.56375396  0.79981963  0.98190426     0.05200
H1465       H  0.56688278  0.74874339  0.97828870     0.10300
H1466       H  0.56695016  0.81851752  0.97956466     0.09100
N1467       N  0.42589253  0.85573511  0.06401396    -0.34600
N1468       N  0.46901427  0.87257260  0.08369669    -0.55200
N1469       N  0.44873154  0.89597530  0.10262737    -0.34600
N1470       N  0.40448267  0.87713460  0.08363522    -0.55200
C1471       C  0.43664146  0.84311649  0.05832645     0.29000
C1472       C  0.40208042  0.84496573  0.05852953     0.29000
C1473       C  0.46754998  0.89781332  0.11121993     0.29000
C1474       C  0.43342758  0.90044577  0.11112588     0.29000
C1475       C  0.47692331  0.86362216  0.07271015     0.37600
C1476       C  0.48876204  0.88453732  0.09302655     0.37600
C1477       C  0.38700020  0.86929628  0.07286215     0.37600
C1478       C  0.39943983  0.89113437  0.09287295     0.37600
C1479       C  0.41972532  0.82459324  0.04879014    -0.19900
C1480       C  0.39793788  0.82572772  0.04893580    -0.19900
C1481       C  0.46443632  0.90399876  0.12530692    -0.19900
C1482       C  0.44290323  0.90565918  0.12525074    -0.19900
C1483       C  0.50173910  0.86973953  0.07513371    -0.20900
C1484       C  0.50924880  0.88300223  0.08798256    -0.20900
C1485       C  0.37069511  0.87828216  0.07528673    -0.20900
C1486       C  0.37861444  0.89218437  0.08792694    -0.20900
C1487       C  0.46147912  0.84820809  0.06117622    -0.16300
C1488       C  0.38420053  0.85239607  0.06158087    -0.16300
C1489       C  0.41174766  0.90092529  0.10637149    -0.16300
C1490       C  0.48800866  0.89512742  0.10655639    -0.16300
H1491       H  0.42268246  0.81147411  0.04243423     0.16600
H1492       H  0.38094762  0.81366865  0.04268986     0.16600
H1493       H  0.47645131  0.90704253  0.13465711     0.16600
H1494       H  0.43513452  0.91022022  0.13456003     0.16600
H1495       H  0.51312209  0.86479685  0.06846629     0.14900
H1496       H  0.52756901  0.89027747  0.09313638     0.14900
H1497       H  0.35449973  0.87479791  0.06877287     0.14900
H1498       H  0.36962950  0.90143972  0.09307851     0.14900
H1499       H  0.43509372  0.87216335  0.07022013     0.28200
H1500       H  0.44785563  0.89440303  0.09135234     0.28200
N1501       N  0.42684422  0.56500112  0.06265758    -0.34600
N1502       N  0.47001762  0.58989778  0.08251524    -0.55200
N1503       N  0.44623115  0.54567586  0.10152082    -0.34600
N1504       N  0.40193392  0.52189135  0.08255005    -0.55200
C1505       C  0.43928083  0.58855081  0.05677823     0.29000
C1506       C  0.40325033  0.55262158  0.05682367     0.29000
C1507       C  0.46595378  0.56195661  0.11002910     0.29000
C1508       C  0.42998195  0.52590962  0.11000842     0.29000
C1509       C  0.47918766  0.60687175  0.07146487     0.37600
C1510       C  0.48956898  0.59649684  0.09178978     0.37600
C1511       C  0.38491384  0.51274295  0.07152032     0.37600
C1512       C  0.39542409  0.50230450  0.09177496     0.37600
C1513       C  0.42361458  0.59091310  0.04678413    -0.19900
C1514       C  0.40091169  0.56827808  0.04681542    -0.19900
C1515       C  0.46229341  0.55230685  0.12408415    -0.19900
C1516       C  0.43960538  0.52956522  0.12407020    -0.19900
C1517       C  0.50460231  0.62456532  0.07382941    -0.20900
C1518       C  0.51120021  0.61795927  0.08667563    -0.20900
C1519       C  0.36726506  0.48731335  0.07385585    -0.20900
C1520       C  0.37396564  0.48067499  0.08665452    -0.20900
C1521       C  0.46459504  0.60771635  0.05980708    -0.16300
C1522       C  0.38404277  0.52734441  0.05988107    -0.16300
C1523       C  0.40752384  0.50401168  0.10520472    -0.16300
C1524       C  0.48782939  0.58446420  0.10524964    -0.16300
H1525       H  0.42802209  0.60726611  0.04015293     0.16600
H1526       H  0.38453607  0.56390203  0.04020884     0.16600
H1527       H  0.47480168  0.56064502  0.13336179     0.16600
H1528       H  0.43127891  0.51702655  0.13333564     0.16600
H1529       H  0.51704041  0.64068991  0.06706906     0.14900
H1530       H  0.52972591  0.62804193  0.09176479     0.14900
H1531       H  0.35113110  0.47488262  0.06709726     0.14900
H1532       H  0.36394690  0.46212419  0.09171018     0.14900
H1533       H  0.43473423  0.55709651  0.06919784     0.28200
H1534       H  0.44543825  0.54647445  0.09027432     0.28200
N1535       N  0.28472870  0.48342449  0.02283795    -0.25300
N1536       N  0.28145323  0.49790577  0.03217818    -0.33100
C1537       C  0.30151855  0.50916243  0.04117970     0.03000
C1538       C  0.31812429  0.50135945  0.03730511     0.09100
C1539       C  0.30706987  0.48507399  0.02565450    -0.04000
H1540       H  0.30368041  0.52185598  0.04998373     0.09700
H1541       H  0.31452179  0.47503821  0.01975435     0.10900
Cu1542     Cu  0.24955184  0.50104896  0.03279265     0.44200
Cu1543     Cu  0.25812433  0.46190692  0.00707606     0.42000
Cu1544     Cu  0.19884927  0.46282738  0.00788689     0.43900
N1545       N  0.21529118  0.49980282  0.03276172    -0.32700
N1546       N  0.19643933  0.48560187  0.02373774    -0.26900
C1547       C  0.17662577  0.48849762  0.02683959    -0.03000
C1548       C  0.18355494  0.50531725  0.03832117     0.09200
C1549       C  0.20807035  0.51211813  0.04183768     0.03000
H1550       H  0.15854344  0.47892037  0.02124718     0.10600
H1551       H  0.21971250  0.52480132  0.05045799     0.09700
N1552       N  0.20677764  0.44237371  0.99299482    -0.34100
N1553       N  0.22823821  0.44215362  0.99271022    -0.26300
C1554       C  0.22742571  0.42747086  0.98160419    -0.01500
C1555       C  0.20441927  0.41806285  0.97465002     0.07100
C1556       C  0.19174442  0.42780426  0.98205741     0.05200
H1557       H  0.24258505  0.42414768  0.97873951     0.10300
H1558       H  0.17315354  0.42481442  0.97960480     0.09100
N1559       N  0.64997096  0.71570834  0.17516437    -0.25300
N1560       N  0.62526876  0.70665681  0.17411399    -0.33100
C1561       C  0.61883577  0.71963114  0.18321413     0.03000
C1562       C  0.64048829  0.73762964  0.19028703     0.09100
C1563       C  0.65990023  0.73470339  0.18499001    -0.04000
H1564       H  0.59978992  0.71613157  0.18459407     0.09700
H1565       H  0.67971834  0.74547473  0.18805990     0.10900
Cu1566     Cu  0.60117158  0.67710170  0.16041317     0.44200
Cu1567     Cu  0.66898092  0.70173198  0.16320513     0.42000
Cu1568     Cu  0.62950065  0.64889444  0.13906243     0.43900
N1569       N  0.58105687  0.64812530  0.14550781    -0.32700
N1570       N  0.59145129  0.63771192  0.13768302    -0.26900
C1571       C  0.57393039  0.62062053  0.12848468    -0.03000
C1572       C  0.55152840  0.62030742  0.13070752     0.09200
C1573       C  0.55663126  0.63793751  0.14151059     0.03000
H1574       H  0.57751083  0.60992319  0.12044904     0.10600
H1575       H  0.54384226  0.64359153  0.14579880     0.09700
N1576       N  0.66838165  0.66483947  0.14121778    -0.34100
N1577       N  0.68290418  0.68417086  0.14990041    -0.26300
C1578       C  0.70719434  0.69014054  0.14838378    -0.01500
C1579       C  0.70777688  0.67373298  0.13830791     0.07100
C1580       C  0.68298061  0.65800311  0.13396681     0.05200
H1581       H  0.72317753  0.70537098  0.15410157     0.10300
H1582       H  0.67604540  0.64286222  0.12601788     0.09100
N1583       N  0.06643005  0.71321774  0.17540059    -0.25300
N1584       N  0.08054105  0.70261628  0.17513795    -0.33100
C1585       C  0.09993583  0.71483694  0.18453747     0.03000
C1586       C  0.09787706  0.73396625  0.19097619     0.09100
C1587       C  0.07651800  0.73251746  0.18501215    -0.04000
H1588       H  0.11455221  0.71026043  0.18640738     0.09700
H1589       H  0.06896984  0.74465668  0.18737009     0.10900
Cu1590     Cu  0.07370935  0.67267542  0.16176127     0.44200
Cu1591     Cu  0.03440750  0.70129894  0.16250625     0.42000
Cu1592     Cu  0.01935650  0.64907445  0.13811204     0.43900
N1593       N  0.06418110  0.64436033  0.14654229    -0.32700
N1594       N  0.04423841  0.63572808  0.13784653    -0.26900
C1595       C  0.04404811  0.61856622  0.12866380    -0.03000
C1596       C  0.06478367  0.61633085  0.13182375     0.09200
C1597       C  0.07725061  0.63294406  0.14313408     0.03000
H1598       H  0.03035241  0.60913488  0.12001788     0.10600
H1599       H  0.09493948  0.63711987  0.14816358     0.09700
N1600       N  0.99789302  0.66623834  0.13969104    -0.34100
N1601       N  0.00334668  0.68540918  0.14853118    -0.26300
C1602       C  0.98579695  0.69216682  0.14680361    -0.01500
C1603       C  0.96863247  0.67644924  0.13640774     0.07100
C1604       C  0.97678656  0.66027803  0.13211497     0.05200
H1605       H  0.98558786  0.70734518  0.15267247     0.10300
H1606       H  0.96808681  0.64530985  0.12406799     0.09100
N1607       N  0.80032636  0.66764301  0.11525304    -0.25300
N1608       N  0.78510566  0.65864768  0.10378875    -0.33100
C1609       C  0.76375892  0.65895415  0.10655226     0.03000
C1610       C  0.76566264  0.66860983  0.12036159     0.09100
C1611       C  0.78897838  0.67392684  0.12563431    -0.04000
H1612       H  0.74797016  0.65245492  0.09907618     0.09700
H1613       H  0.79703451  0.68159885  0.13622668     0.10900
Cu1614     Cu  0.79322166  0.64574422  0.08488332     0.44200
Cu1615     Cu  0.83558565  0.67045817  0.11634214     0.42000
Cu1616     Cu  0.85215160  0.64682396  0.08445523     0.43900
N1617       N  0.80477615  0.63260186  0.06749574    -0.32700
N1618       N  0.82647518  0.63290864  0.06737908    -0.26900
C1619       C  0.82817077  0.62232478  0.05491674    -0.03000
C1620       C  0.80652688  0.61513878  0.04686854     0.09200
C1621       C  0.79203958  0.62182288  0.05510080     0.03000
H1622       H  0.84375871  0.61964961  0.05208394     0.10600
H1623       H  0.77343806  0.61863197  0.05245119     0.09700
N1624       N  0.87487873  0.66110311  0.10278904    -0.34100
N1625       N  0.86905269  0.66978388  0.11445293    -0.26300
C1626       C  0.88756029  0.67682581  0.12447224    -0.01500
C1627       C  0.90572644  0.67234604  0.11874419     0.07100
C1628       C  0.89714553  0.66237820  0.10504897     0.05200
H1629       H  0.88749841  0.68413289  0.13519888     0.10300
H1630       H  0.90613035  0.65602398  0.09738590     0.09100
O1631       O  0.21100293  0.82821088  0.25687575    -0.70900
O1632       O  0.16435884  0.78103817  0.22598028    -0.71900
O1633       O  0.21124113  0.82804212  0.22599842    -0.60500
O1634       O  0.16414670  0.78124297  0.25686455    -0.69000
O1635       O  0.14323914  0.80199081  0.25666477    -0.68500
O1636       O  0.19029965  0.84875658  0.22582700    -0.59800
O1637       O  0.14346837  0.80180241  0.22580415    -0.72300
O1638       O  0.19007525  0.84893827  0.25668355    -0.71000
Cu1639     Cu  0.18843601  0.80389118  0.24143647     1.04600
Cu1640     Cu  0.16603903  0.82609578  0.24123597     1.04300
C1641       C  0.20791455  0.84603433  0.26154103     0.95300
C1642       C  0.14651780  0.78396495  0.22113479     0.94400
C1643       C  0.20821501  0.84582085  0.22116318     0.86500
C1644       C  0.14624639  0.78422328  0.26152364     0.92800
C1645       C  0.12942057  0.76675169  0.21037520    -0.11300
C1646       C  0.11489664  0.75196025  0.20150039    -0.12800
C1647       C  0.92807718  0.67544425  0.12580547    -0.11300
C1648       C  0.94672809  0.67664369  0.13100438    -0.12800
C1649       C  0.72957946  0.67330039  0.13296737    -0.11300
C1650       C  0.74672673  0.67174162  0.12767930    -0.12800
C1651       C  0.50975230  0.59623386  0.11483263    -0.11300
C1652       C  0.52857147  0.60673517  0.12231484    -0.12800
C1653       C  0.34177172  0.50865659  0.04434050    -0.11300
C1654       C  0.36121896  0.51635925  0.05108237    -0.12800
C1655       C  0.47103935  0.83532550  0.05235281    -0.11300
C1656       C  0.47856550  0.82361646  0.04561741    -0.12800
C1657       C  0.48323829  0.64997442  0.04427127    -0.11300
C1658       C  0.47558265  0.63052985  0.05100362    -0.12800
C1659       C  0.08107261  0.59154049  0.11613100    -0.11300
C1660       C  0.07340108  0.60222723  0.12369508    -0.12800
C1661       C  0.16832255  0.51355813  0.04557762    -0.11300
C1662       C  0.15657541  0.52104767  0.05230359    -0.12800
C1663       C  0.36070716  0.84047485  0.05327644    -0.11300
C1664       C  0.34080018  0.82898157  0.04680318    -0.12800
C1665       C  0.15124585  0.63124993  0.05309231    -0.11300
C1666       C  0.16280128  0.65115350  0.04662204    -0.12800
C1667       C  0.24017780  0.87749829  0.20154331    -0.11300
C1668       C  0.22539958  0.86296949  0.21041763    -0.12800
C1669       C  0.31635412  0.06384631  0.12575950    -0.11300
C1670       C  0.31533374  0.04529908  0.13097072    -0.12800
C1671       C  0.40054677  0.91091871  0.11621680    -0.11300
C1672       C  0.38988304  0.91866756  0.12374543    -0.12800
C1673       C  0.31850208  0.26225883  0.13287361    -0.11300
C1674       C  0.32003321  0.24508910  0.12761479    -0.12800
C1675       C  0.38542178  0.46323661  0.12222523    -0.11300
C1676       C  0.39585036  0.48205337  0.11474879    -0.12800
C1677       C  0.74995120  0.06023986  0.12192121    -0.11300
C1678       C  0.73262980  0.04106573  0.12710164    -0.12800
C1679       C  0.52853180  0.90951628  0.12317820    -0.11300
C1680       C  0.50942781  0.90311461  0.11629327    -0.12800
C1681       C  0.93230742  0.24194910  0.12163220    -0.11300
C1682       C  0.95149105  0.25929982  0.12678443    -0.12800
C1683       C  0.08214505  0.46347297  0.12307454    -0.11300
C1684       C  0.08851346  0.48251216  0.11613634    -0.12800
C1685       C  0.64219882  0.75537718  0.20113410    -0.11300
C1686       C  0.64294348  0.76980762  0.21032978    -0.12800
C1687       C  0.64432375  0.87678588  0.20069918    -0.11300
C1688       C  0.64494583  0.86406392  0.21053830    -0.12800
C1689       C  0.11522353  0.34812867  0.20077433    -0.11300
C1690       C  0.12799937  0.34750567  0.21058349    -0.12800
C1691       C  0.22208262  0.34920560  0.21004610    -0.11300
C1692       C  0.23641576  0.34987216  0.20080792    -0.12800
C1693       C  0.11445032  0.75217951  0.28107372    -0.11300
C1694       C  0.12902909  0.76710929  0.27227193    -0.12800
C1695       C  0.92663532  0.67317484  0.35560848    -0.11300
C1696       C  0.94529349  0.67447044  0.35039308    -0.12800
C1697       C  0.64151166  0.75328783  0.28177744    -0.11300
C1698       C  0.64254974  0.76810825  0.27276007    -0.12800
C1699       C  0.72830185  0.67122899  0.35020096    -0.11300
C1700       C  0.74560401  0.66984364  0.35540618    -0.12800
C1701       C  0.52814996  0.60744559  0.36216510    -0.11300
C1702       C  0.50942890  0.59665329  0.36966116    -0.12800
C1703       C  0.36118522  0.51623892  0.43345279    -0.11300
C1704       C  0.34158086  0.50891483  0.43996840    -0.12800
C1705       C  0.07370095  0.60259481  0.35927519    -0.11300
C1706       C  0.08101717  0.59180327  0.36705921    -0.12800
C1707       C  0.16162531  0.65144303  0.43670353    -0.11300
C1708       C  0.15006023  0.63131426  0.43049226    -0.12800
C1709       C  0.15602703  0.52150954  0.43182544    -0.11300
C1710       C  0.16817811  0.51465364  0.43873259    -0.12800
C1711       C  0.48273651  0.65023709  0.44003524    -0.11300
C1712       C  0.47544911  0.63070314  0.43346049    -0.12800
C1713       C  0.47731753  0.82351942  0.43857926    -0.11300
C1714       C  0.47047579  0.83562141  0.43162195    -0.12800
C1715       C  0.34047906  0.82986800  0.43660739    -0.11300
C1716       C  0.36060530  0.84143872  0.43038808    -0.12800
C1717       C  0.23991682  0.87785201  0.28110077    -0.11300
C1718       C  0.22499234  0.86327913  0.27229382    -0.12800
C1719       C  0.31763071  0.04681093  0.35050978    -0.11300
C1720       C  0.31874923  0.06537481  0.35573924    -0.12800
C1721       C  0.38924808  0.91811281  0.35940062    -0.11300
C1722       C  0.40010131  0.91081029  0.36714106    -0.12800
C1723       C  0.22438858  0.34984227  0.27252337    -0.11300
C1724       C  0.23920345  0.35083686  0.28153659    -0.12800
C1725       C  0.32219934  0.24646245  0.35533676    -0.11300
C1726       C  0.32086721  0.26378339  0.35012519    -0.12800
C1727       C  0.38464799  0.46375434  0.36225319    -0.11300
C1728       C  0.39550706  0.48246664  0.36974003    -0.12800
C1729       C  0.64421407  0.87588232  0.28401533    -0.11300
C1730       C  0.64484340  0.86300334  0.27427228    -0.12800
C1731       C  0.73340755  0.04102265  0.35688058    -0.11300
C1732       C  0.75058639  0.06019341  0.36213140    -0.12800
C1733       C  0.52933517  0.91115819  0.36117435    -0.11300
C1734       C  0.51031759  0.90496689  0.36810362    -0.12800
C1735       C  0.11661595  0.34846563  0.28397596    -0.11300
C1736       C  0.12953482  0.34784563  0.27425040    -0.12800
C1737       C  0.95132536  0.25850671  0.35684714    -0.11300
C1738       C  0.93206773  0.24139997  0.36207156    -0.12800
C1739       C  0.08060204  0.46251476  0.36137176    -0.11300
C1740       C  0.08672423  0.48152531  0.36828837    -0.12800
C1741       C  0.18952067  0.80294518  0.95405253    -0.11300
C1742       C  0.19556276  0.79686635  0.96519899    -0.12800
C1743       C  0.23902713  0.93398670  0.86237152    -0.11300
C1744       C  0.25606461  0.95330654  0.85717833    -0.12800
C1745       C  0.03906182  0.73575025  0.85709718    -0.11300
C1746       C  0.05836089  0.75278391  0.86232216    -0.12800
C1747       C  0.40145039  0.19804133  0.02190129    -0.11300
C1748       C  0.38944969  0.19185647  0.03308815    -0.12800
C1749       C  0.50825444  0.34312080  0.93917663    -0.11300
C1750       C  0.51528609  0.36225367  0.93221463    -0.12800
C1751       C  0.64850314  0.48333421  0.93929902    -0.11300
C1752       C  0.62932217  0.47628459  0.93237724    -0.12800
C1753       C  0.79966046  0.60174499  0.03323490    -0.11300
C1754       C  0.79351630  0.58978748  0.02203432    -0.12800
C1755       C  0.90454085  0.51193699  0.86852356    -0.11300
C1756       C  0.91133022  0.53113186  0.86162195    -0.12800
C1757       C  0.82226830  0.47898770  0.93852687    -0.11300
C1758       C  0.83409525  0.47168033  0.93170855    -0.12800
C1759       C  0.60196612  0.80203320  0.95079566    -0.11300
C1760       C  0.58912401  0.79556710  0.96165934    -0.12800
C1761       C  0.67311061  0.73195617  0.85076121    -0.11300
C1762       C  0.67191487  0.74921902  0.85618914    -0.12800
C1763       C  0.60599104  0.53091581  0.86205091    -0.11300
C1764       C  0.59463477  0.51200476  0.86938879    -0.12800
C1765       C  0.67710453  0.93122159  0.85990258    -0.11300
C1766       C  0.67745798  0.94938411  0.85458433    -0.12800
C1767       C  0.82854143  0.34175013  0.93722936    -0.11300
C1768       C  0.83997452  0.36177109  0.93084210    -0.12800
C1769       C  0.79571305  0.19654287  0.01895820    -0.11300
C1770       C  0.80165276  0.19056410  0.03016225    -0.12800
C1771       C  0.47996860  0.08768591  0.86866121    -0.11300
C1772       C  0.46076463  0.08090693  0.86176869    -0.12800
C1773       C  0.51298198  0.16981507  0.93868028    -0.11300
C1774       C  0.52029213  0.15800968  0.93185191    -0.12800
C1775       C  0.60101444  0.07448914  0.86028344    -0.11300
C1776       C  0.59022686  0.08204672  0.86788981    -0.12800
C1777       C  0.65002805  0.16324222  0.93745141    -0.11300
C1778       C  0.63003066  0.15184064  0.93103707    -0.12800
C1779       C  0.18963248  0.38956090  0.95100495    -0.11300
C1780       C  0.19601513  0.40231897  0.96189682    -0.12800
C1781       C  0.04222863  0.31406156  0.85465943    -0.11300
C1782       C  0.06043692  0.31454132  0.86001561    -0.12800
C1783       C  0.91722712  0.39058442  0.86006245    -0.11300
C1784       C  0.90974176  0.40142089  0.86768548    -0.12800
C1785       C  0.25991234  0.31894731  0.85083739    -0.11300
C1786       C  0.24263938  0.32011839  0.85627412    -0.12800
C1787       C  0.46102694  0.38607625  0.86193587    -0.11300
C1788       C  0.47996139  0.39744858  0.86925332    -0.12800
C1789       C  0.34649949  0.12974640  0.77389739    -0.11300
C1790       C  0.34742794  0.11701644  0.78364181    -0.12800
C1791       C  0.34845050  0.23845875  0.78218250    -0.11300
C1792       C  0.34774443  0.22395531  0.77305179    -0.12800
C1793       C  0.75071248  0.11495585  0.78207480    -0.11300
C1794       C  0.76544160  0.12957468  0.77317664    -0.12800
C1795       C  0.86179035  0.22592044  0.77319705    -0.11300
C1796       C  0.87641677  0.24060119  0.78210967    -0.12800
C1797       C  0.76789749  0.64407941  0.77291918    -0.11300
C1798       C  0.75327937  0.64328649  0.78200280    -0.12800
C1799       C  0.86236708  0.64542223  0.77382082    -0.11300
C1800       C  0.87515290  0.64449266  0.78353752    -0.12800
C1801       C  0.58728510  0.79504411  0.52293079    -0.11300
C1802       C  0.60002846  0.80138129  0.53383353    -0.12800
C1803       C  0.75378758  0.64326283  0.70128284    -0.11300
C1804       C  0.76842297  0.64414325  0.71040522    -0.12800
C1805       C  0.67144238  0.73074526  0.63337859    -0.11300
C1806       C  0.67017285  0.74807126  0.62810299    -0.12800
C1807       C  0.75084434  0.11510989  0.70213350    -0.11300
C1808       C  0.76551167  0.12962596  0.71109580    -0.12800
C1809       C  0.67668784  0.94881482  0.63033219    -0.11300
C1810       C  0.67600928  0.93045608  0.62510512    -0.12800
C1811       C  0.82894930  0.34093954  0.54722095    -0.11300
C1812       C  0.84050954  0.36095636  0.55357200    -0.12800
C1813       C  0.80096155  0.19123348  0.45339324    -0.11300
C1814       C  0.79496878  0.19716694  0.46456535    -0.12800
C1815       C  0.83556565  0.47132145  0.55152848    -0.11300
C1816       C  0.82382730  0.47879034  0.54474755    -0.12800
C1817       C  0.79300816  0.58590791  0.45971754    -0.11300
C1818       C  0.79939005  0.59813583  0.44860527    -0.12800
C1819       C  0.59541210  0.51089640  0.61424333    -0.11300
C1820       C  0.60639092  0.52979397  0.62162396    -0.12800
C1821       C  0.63055306  0.47530733  0.55136283    -0.11300
C1822       C  0.64976145  0.48268430  0.54440688    -0.12800
C1823       C  0.51647461  0.36114880  0.55147032    -0.11300
C1824       C  0.50908185  0.34190827  0.54455220    -0.12800
C1825       C  0.40557701  0.19893897  0.45982022    -0.11300
C1826       C  0.39336659  0.19258545  0.44869977    -0.12800
C1827       C  0.58980986  0.08118770  0.61655706    -0.11300
C1828       C  0.60012906  0.07343992  0.62440244    -0.12800
C1829       C  0.63076930  0.15092741  0.55346676    -0.11300
C1830       C  0.65081926  0.16252008  0.54714769    -0.12800
C1831       C  0.51311994  0.16792480  0.54449715    -0.11300
C1832       C  0.52051004  0.15613492  0.55129559    -0.12800
C1833       C  0.19876773  0.79350648  0.52098235    -0.11300
C1834       C  0.19299368  0.79930488  0.53229598    -0.12800
C1835       C  0.34704167  0.11660243  0.70040602    -0.11300
C1836       C  0.34625092  0.12924498  0.71023970    -0.12800
C1837       C  0.25784427  0.95249914  0.62702277    -0.11300
C1838       C  0.24090279  0.93284774  0.62208370    -0.12800
C1839       C  0.48060016  0.08846957  0.61520656    -0.11300
C1840       C  0.46154523  0.08238177  0.62208631    -0.12800
C1841       C  0.87550078  0.64482982  0.70036244    -0.11300
C1842       C  0.86282932  0.64565522  0.71017622    -0.12800
C1843       C  0.04008682  0.73429396  0.62723925    -0.11300
C1844       C  0.05961146  0.75132572  0.62222230    -0.12800
C1845       C  0.91003864  0.53042982  0.62213902    -0.11300
C1846       C  0.90379546  0.51132598  0.61527444    -0.12800
C1847       C  0.19045497  0.39185922  0.53380787    -0.11300
C1848       C  0.19680001  0.40452344  0.52287659    -0.12800
C1849       C  0.87618809  0.24045881  0.70204250    -0.11300
C1850       C  0.86170411  0.22582781  0.71103336    -0.12800
C1851       C  0.04240435  0.31434796  0.63012396    -0.11300
C1852       C  0.06073313  0.31500799  0.62485487    -0.12800
C1853       C  0.91046509  0.40178704  0.61661333    -0.11300
C1854       C  0.91817565  0.39138683  0.62441841    -0.12800
C1855       C  0.34778970  0.22361571  0.71046862    -0.11300
C1856       C  0.34866081  0.23825380  0.70135435    -0.12800
C1857       C  0.26081814  0.32017995  0.63337038    -0.11300
C1858       C  0.24351135  0.32154681  0.62813304    -0.12800
C1859       C  0.48091016  0.39648367  0.61426729    -0.11300
C1860       C  0.46198409  0.38547480  0.62162561    -0.12800
loop_ 
_geom_bond_atom_site_label_1 
_geom_bond_atom_site_label_2 
_geom_bond_distance 
_geom_bond_site_symmetry_2 
_ccdc_geom_bond_type 
N1            N2   1.323       .  A
N1            C5   1.347       .  A
N1           Cu9   2.082       .  S
N2            C3   1.346       .  A
N2           Cu8   2.075       .  S
C3            C4   1.379       .  A
C3            H6   1.082       .  S
C4            C5   1.381       .  A
C4         C1856   1.440       .  S
C5            H7   1.082       .  S
Cu8          N11   2.074       .  S
Cu9          N19   2.081       .  S
Cu10         N12   2.074       .  S
Cu10         N18   2.074       .  S
N11          N12   1.323       .  A
N11          C15   1.346       .  A
N12          C13   1.346       .  A
C13          C14   1.380       .  A
C13          H16   1.082       .  S
C14          C15   1.380       .  A
C14        C1860   1.438       .  S
C15          H17   1.082       .  S
N18          N19   1.324       .  A
N18          C22   1.345       .  A
N19          C20   1.347       .  A
C20          C21   1.381       .  A
C20          H23   1.082       .  S
C21          C22   1.379       .  A
C21        C1857   1.439       .  S
C22          H24   1.082       .  S
N25          N26   1.323       .  A
N25          C29   1.347       .  A
N25         Cu33   2.081       .  S
N26          C27   1.345       .  A
N26         Cu32   2.073       .  S
C27          C28   1.379       .  A
C27          H30   1.082       .  S
C28          C29   1.382       .  A
C28        C1849   1.439       .  S
C29          H31   1.082       .  S
Cu32         N35   2.073       .  S
Cu33         N43   2.080       .  S
Cu34         N36   2.069       .  S
Cu34         N42   2.070       .  S
N35          N36   1.323       .  A
N35          C39   1.346       .  A
N36          C37   1.344       .  A
C37          C38   1.378       .  A
C37          H40   1.082       .  S
C38          C39   1.380       .  A
C38        C1854   1.435       .  S
C39          H41   1.082       .  S
N42          N43   1.323       .  A
N42          C46   1.345   1_655  A
N43          C44   1.347   1_655  A
C44          C45   1.380       .  A
C44          H47   1.082       .  S
C45          C46   1.379       .  A
C45        C1851   1.437       .  S
C46          H48   1.082       .  S
N49          N50   1.324       .  A
N49          C53   1.348       .  A
N49         Cu57   2.083       .  S
N50          C51   1.344       .  A
N50         Cu56   2.071       .  S
C51          C52   1.378       .  A
C51          H54   1.082       .  S
C52          C53   1.382       .  A
C52        C1858   1.439       .  S
C53          H55   1.082       .  S
Cu56         N59   2.071       .  S
Cu57         N67   2.083       .  S
Cu58         N60   2.064       .  S
Cu58         N66   2.064       .  S
N59          N60   1.322       .  A
N59          C63   1.345       .  A
N60          C61   1.344       .  A
C61          C62   1.378       .  A
C61          H64   1.082       .  S
C62          C63   1.380       .  A
C62        C1847   1.434       .  S
C63          H65   1.082       .  S
N66          N67   1.323       .  A
N66          C70   1.343       .  A
N67          C68   1.347       .  A
C68          C69   1.382       .  A
C68          H71   1.082       .  S
C69          C70   1.377       .  A
C69        C1852   1.437       .  S
C70          H72   1.082       .  S
N73          N74   1.323       .  A
N73          C77   1.347   1_655  A
N73         Cu81   2.077       .  S
N74          C75   1.344   1_655  A
N74         Cu80   2.071       .  S
C75          C76   1.379       .  A
C75          H78   1.082       .  S
C76          C77   1.381       .  A
C76        C1843   1.438       .  S
C77          H79   1.082       .  S
Cu80         N83   2.072       .  S
Cu81         N91   2.078       .  S
Cu82         N84   2.081       .  S
Cu82         N90   2.082       .  S
N83          N84   1.323       .  A
N83          C87   1.345       .  A
N84          C85   1.347       .  A
C85          C86   1.382       .  A
C85          H88   1.082       .  S
C86          C87   1.379       .  A
C86        C1845   1.439       .  S
C87          H89   1.082       .  S
N90          N91   1.324       .  A
N90          C94   1.346       .  A
N91          C92   1.346       .  A
C92          C93   1.380       .  A
C92          H95   1.082       .  S
C93          C94   1.380       .  A
C93        C1841   1.440       .  S
C94          H96   1.082       .  S
N97          N98   1.323       .  A
N97         C101   1.347   1_545  A
N97        Cu105   2.076       .  S
N98          C99   1.344   1_545  A
N98        Cu104   2.071       .  S
C99         C100   1.379       .  A
C99         H102   1.082       .  S
C100        C101   1.381       .  A
C100       C1837   1.438       .  S
C101        H103   1.082       .  S
Cu104       N107   2.071       .  S
Cu105       N115   2.077       .  S
Cu106       N108   2.080       .  S
Cu106       N114   2.081       .  S
N107        N108   1.323       .  A
N107        C111   1.345       .  A
N108        C109   1.347       .  A
C109        C110   1.382       .  A
C109        H112   1.082       .  S
C110        C111   1.379       .  A
C110       C1840   1.438       .  S
C111        H113   1.082       .  S
N114        N115   1.324       .  A
N114        C118   1.346       .  A
N115        C116   1.346       .  A
C116        C117   1.379       .  A
C116        H119   1.082       .  S
C117        C118   1.380       .  A
C117       C1835   1.439       .  S
C118        H120   1.082       .  S
N121        N122   1.324       .  A
N121        C125   1.348       .  A
N121       Cu129   2.079       .  S
N122        C123   1.344       .  A
N122       Cu128   2.074       .  S
C123        C124   1.378       .  A
C123        H126   1.082       .  S
C124        C125   1.381       .  A
C124       C1838   1.438       .  S
C125        H127   1.082       .  S
Cu128       N131   2.074       .  S
Cu129       N139   2.079       .  S
Cu130       N132   2.075       .  S
Cu130       N138   2.075       .  S
N131        N132   1.322       .  A
N131        C135   1.346       .  A
N132        C133   1.346       .  A
C133        C134   1.381       .  A
C133        H136   1.082       .  S
C134        C135   1.381       .  A
C134       C1834   1.440       .  S
C135        H137   1.082       .  S
N138        N139   1.324       .  A
N138        C142   1.344       .  A
N139        C140   1.348       .  A
C140        C141   1.381       .  A
C140        H143   1.082       .  S
C141        C142   1.378       .  A
C141       C1844   1.438       .  S
C142        H144   1.082       .  S
N145        C150   1.353       .  A
N145        C149   1.354       .  A
N145        H177   1.038       .  S
N146        C153   1.352       .  A
N146        C154   1.351       .  A
N147        C152   1.354       .  A
N147        C151   1.353       .  A
N147        H178   1.037       .  S
N148        C155   1.352       .  A
N148        C156   1.352       .  A
C149        C157   1.388       .  A
C149        C165   1.415       .  A
C150        C166   1.414       .  A
C150        C158   1.387       .  A
C151        C159   1.388       .  A
C151        C168   1.415       .  A
C152        C167   1.414       .  A
C152        C160   1.387       .  A
C153        C165   1.411       .  A
C153        C161   1.386       .  A
C154        C168   1.414       .  A
C154        C162   1.388       .  A
C155        C163   1.387       .  A
C155        C166   1.411       .  A
C156        C164   1.387       .  A
C156        C167   1.413       .  A
C157        C158   1.375       .  A
C157        H169   1.082       .  S
C158        H170   1.082       .  S
C159        C160   1.377       .  A
C159        H171   1.082       .  S
C160        H172   1.082       .  S
C161        C162   1.373       .  A
C161        H173   1.082       .  S
C162        H174   1.082       .  S
C163        C164   1.371       .  A
C163        H175   1.082       .  S
C164        H176   1.082       .  S
C165       C1829   1.453       .  S
C166       C1832   1.450       .  S
C167       C1839   1.452       .  S
C168       C1827   1.449       .  S
N179        N180   1.323       .  A
N179        C183   1.348       .  A
N179       Cu187   2.077       .  S
N180        C181   1.343       .  A
N180       Cu186   2.066       .  S
C181        C182   1.377       .  A
C181        H184   1.082       .  S
C182        C183   1.381       .  A
C182       C1824   1.436       .  S
C183        H185   1.082       .  S
Cu186       N189   2.066       .  S
Cu187       N197   2.077       .  S
Cu188       N190   2.076       .  S
Cu188       N196   2.076       .  S
N189        N190   1.322       .  A
N189        C193   1.344       .  A
N190        C191   1.347       .  A
C191        C192   1.381       .  A
C191        H194   1.082       .  S
C192        C193   1.378       .  A
C192       C1831   1.436       .  S
C193        H195   1.082       .  S
N196        N197   1.324       .  A
N196        C200   1.346       .  A
N197        C198   1.345       .  A
C198        C199   1.379       .  A
C198        H201   1.082       .  S
C199        C200   1.379       .  A
C199       C1825   1.437       .  S
C200        H202   1.082       .  S
N203        C208   1.353       .  A
N203        C207   1.353       .  A
N203        H235   1.038       .  S
N204        C211   1.352       .  A
N204        C212   1.352       .  A
N205        C210   1.354       .  A
N205        C209   1.354       .  A
N205        H236   1.038       .  S
N206        C213   1.352       .  A
N206        C214   1.352       .  A
C207        C215   1.388       .  A
C207        C223   1.414       .  A
C208        C224   1.414       .  A
C208        C216   1.388       .  A
C209        C217   1.388       .  A
C209        C226   1.415       .  A
C210        C225   1.415       .  A
C210        C218   1.388       .  A
C211        C223   1.412       .  A
C211        C219   1.386       .  A
C212        C226   1.414       .  A
C212        C220   1.388       .  A
C213        C221   1.386       .  A
C213        C224   1.412       .  A
C214        C222   1.388       .  A
C214        C225   1.414       .  A
C215        C216   1.374       .  A
C215        H227   1.082       .  S
C216        H228   1.082       .  S
C217        C218   1.377       .  A
C217        H229   1.082       .  S
C218        H230   1.082       .  S
C219        C220   1.373       .  A
C219        H231   1.082       .  S
C220        H232   1.082       .  S
C221        C222   1.373       .  A
C221        H233   1.082       .  S
C222        H234   1.082       .  S
C223       C1823   1.450       .  S
C224       C1821   1.450       .  S
C225       C1819   1.452       .  S
C226       C1859   1.451       .  S
N237        N238   1.323       .  A
N237        C241   1.348       .  A
N237       Cu245   2.078       .  S
N238        C239   1.343       .  A
N238       Cu244   2.066       .  S
C239        C240   1.377       .  A
C239        H242   1.082       .  S
C240        C241   1.382       .  A
C240       C1822   1.436       .  S
C241        H243   1.082       .  S
Cu244       N247   2.066       .  S
Cu245       N255   2.077       .  S
Cu246       N248   2.076       .  S
Cu246       N254   2.076       .  S
N247        N248   1.322       .  A
N247        C251   1.344       .  A
N248        C249   1.347       .  A
C249        C250   1.381       .  A
C249        H252   1.082       .  S
C250        C251   1.378       .  A
C250       C1816   1.436       .  S
C251        H253   1.082       .  S
N254        N255   1.324       .  A
N254        C258   1.346       .  A
N255        C256   1.345       .  A
C256        C257   1.379       .  A
C256        H259   1.082       .  S
C257        C258   1.379       .  A
C257       C1817   1.436       .  S
C258        H260   1.082       .  S
N261        N262   1.323       .  A
N261        C265   1.348       .  A
N261       Cu269   2.080       .  S
N262        C263   1.344       .  A
N262       Cu268   2.070       .  S
C263        C264   1.378       .  A
C263        H266   1.082       .  S
C264        C265   1.382       .  A
C264       C1811   1.439       .  S
C265        H267   1.082       .  S
Cu268       N271   2.070       .  S
Cu269       N279   2.080       .  S
Cu270       N272   2.080       .  S
Cu270       N278   2.080       .  S
N271        N272   1.323       .  A
N271        C275   1.344       .  A
N272        C273   1.348       .  A
C273        C274   1.382       .  A
C273        H276   1.082       .  S
C274        C275   1.378       .  A
C274       C1830   1.439       .  S
C275        H277   1.082       .  S
N278        N279   1.325       .  A
N278        C282   1.346       .  A
N279        C280   1.346       .  A
C280        C281   1.379       .  A
C280        H283   1.082       .  S
C281        C282   1.379       .  A
C281       C1814   1.438       .  S
C282        H284   1.082       .  S
N285        C290   1.355       .  A
N285        C289   1.353       .  A
N285        H317   1.039       .  S
N286        C293   1.351       .  A
N286        C294   1.352       .  A
N287        C292   1.353       .  A
N287        C291   1.354       .  A
N287        H318   1.037       .  S
N288        C295   1.352       .  A
N288        C296   1.351       .  A
C289        C297   1.387       .  A
C289        C305   1.414       .  A
C290        C306   1.415       .  A
C290        C298   1.388       .  A
C291        C299   1.387       .  A
C291        C308   1.415       .  A
C292        C307   1.415       .  A
C292        C300   1.388       .  A
C293        C305   1.411       .  A
C293        C301   1.387       .  A
C294        C308   1.413       .  A
C294        C302   1.387       .  A
C295        C303   1.386       .  A
C295        C306   1.411       .  A
C296        C304   1.388       .  A
C296        C307   1.414       .  A
C297        C298   1.375       .  A
C297        H309   1.082       .  S
C298        H310   1.082       .  S
C299        C300   1.377       .  A
C299        H311   1.082       .  S
C300        H312   1.082       .  S
C301        C302   1.371       .  A
C301        H313   1.082       .  S
C302        H314   1.082       .  S
C303        C304   1.373       .  A
C303        H315   1.082       .  S
C304        H316   1.082       .  S
C305       C1815   1.450       .  S
C306       C1812   1.453       .  S
C307       C1853   1.449       .  S
C308       C1846   1.453       .  S
N319        N320   1.323       .  A
N319        C323   1.347       .  A
N319       Cu327   2.080       .  S
N320        C321   1.345       .  A
N320       Cu326   2.073       .  S
C321        C322   1.378       .  A
C321        H324   1.082       .  S
C322        C323   1.382       .  A
C322       C1807   1.439       .  S
C323        H325   1.082       .  S
Cu326       N329   2.073       .  S
Cu327       N337   2.079       .  S
Cu328       N330   2.069       .  S
Cu328       N336   2.070   1_545  S
N329        N330   1.323       .  A
N329        C333   1.346       .  A
N330        C331   1.344       .  A
C331        C332   1.378       .  A
C331        H334   1.082       .  S
C332        C333   1.380       .  A
C332       C1828   1.435       .  S
C333        H335   1.082       .  S
N336        N337   1.323   1_565  A
N336        C340   1.345       .  A
N337        C338   1.347   1_545  A
C338        C339   1.380       .  A
C338        H341   1.082       .  S
C339        C340   1.379       .  A
C339       C1809   1.437       .  S
C340        H342   1.082       .  S
N343        N344   1.324       .  A
N343        C347   1.347       .  A
N343       Cu351   2.081       .  S
N344        C345   1.346       .  A
N344       Cu350   2.075       .  S
C345        C346   1.379       .  A
C345        H348   1.082       .  S
C346        C347   1.381       .  A
C346       C1803   1.440       .  S
C347        H349   1.082       .  S
Cu350       N353   2.075       .  S
Cu351       N361   2.081       .  S
Cu352       N354   2.073       .  S
Cu352       N360   2.074       .  S
N353        N354   1.323       .  A
N353        C357   1.346       .  A
N354        C355   1.346       .  A
C355        C356   1.380       .  A
C355        H358   1.082       .  S
C356        C357   1.380       .  A
C356       C1820   1.438       .  S
C357        H359   1.082       .  S
N360        N361   1.324       .  A
N360        C364   1.345       .  A
N361        C362   1.347       .  A
C362        C363   1.381       .  A
C362        H365   1.082       .  S
C363        C364   1.379       .  A
C363       C1805   1.438       .  S
C364        H366   1.082       .  S
N367        N368   1.324       .  A
N367        C371   1.348       .  A
N367       Cu375   2.083       .  S
N368        C369   1.344       .  A
N368       Cu374   2.071       .  S
C369        C370   1.378       .  A
C369        H372   1.082       .  S
C370        C371   1.381       .  A
C370       C1806   1.438       .  S
C371        H373   1.082       .  S
Cu374       N377   2.071       .  S
Cu375       N385   2.082       .  S
Cu376       N378   2.064       .  S
Cu376       N384   2.064       .  S
N377        N378   1.322       .  A
N377        C381   1.345       .  A
N378        C379   1.344       .  A
C379        C380   1.378       .  A
C379        H382   1.082       .  S
C380        C381   1.380       .  A
C380       C1802   1.434       .  S
C381        H383   1.082       .  S
N384        N385   1.323       .  A
N384        C388   1.343       .  A
N385        C386   1.348       .  A
C386        C387   1.382       .  A
C386        H389   1.082       .  S
C387        C388   1.377       .  A
C387       C1810   1.437       .  S
C388        H390   1.082       .  S
O391       Cu399   2.011       .  S
O391        C401   1.277       .  A
O392       Cu399   2.010       .  S
O392        C402   1.276       .  A
O393       Cu399   2.011       .  S
O393        C403   1.277       .  A
O394       Cu399   2.010       .  S
O394        C404   1.276       .  A
O395       Cu400   2.016       .  S
O395        C404   1.277       .  A
O396       Cu400   2.014       .  S
O396        C403   1.277       .  A
O397       Cu400   2.018       .  S
O397        C402   1.277       .  A
O398       Cu400   2.016       .  S
O398        C401   1.277       .  A
Cu399      Cu400   2.379       .  S
C401       C1804   1.438       .  S
C402       C1799   1.438       .  S
C403       C1797   1.437       .  S
C404       C1842   1.438       .  S
O405       Cu413   2.015       .  S
O405        C415   1.277       .  A
O406       Cu413   2.014       .  S
O406        C416   1.277       .  A
O407       Cu413   2.014       .  S
O407        C417   1.277       .  A
O408       Cu413   2.014       .  S
O408        C418   1.277       .  A
O409       Cu414   2.011       .  S
O409        C418   1.276       .  A
O410       Cu414   2.010       .  S
O410        C417   1.276       .  A
O411       Cu414   2.010       .  S
O411        C416   1.276       .  A
O412       Cu414   2.011       .  S
O412        C415   1.276       .  A
Cu413      Cu414   2.379       .  S
C415       C1850   1.438       .  S
C416       C1794   1.437       .  S
C417       C1795   1.437       .  S
C418       C1808   1.437       .  S
O419       Cu427   2.016       .  S
O419        C429   1.277       .  A
O420       Cu427   2.017       .  S
O420        C430   1.277       .  A
O421       Cu427   2.013       .  S
O421        C431   1.277       .  A
O422       Cu427   2.015       .  S
O422        C432   1.277       .  A
O423       Cu428   2.010       .  S
O423        C432   1.276       .  A
O424       Cu428   2.011       .  S
O424        C431   1.277       .  A
O425       Cu428   2.009       .  S
O425        C430   1.276       .  A
O426       Cu428   2.011       .  S
O426        C429   1.277       .  A
Cu427      Cu428   2.379       .  S
C429       C1855   1.438       .  S
C430       C1789   1.437       .  S
C431       C1792   1.437       .  S
C432       C1836   1.437       .  S
N433        N434   1.324       .  A
N433        C437   1.347       .  A
N433       Cu441   2.082       .  S
N434        C435   1.345       .  A
N434       Cu440   2.073       .  S
C435        C436   1.378       .  A
C435        H438   1.082       .  S
C436        C437   1.381       .  A
C436       C1791   1.439       .  S
C437        H439   1.082       .  S
Cu440       N443   2.073       .  S
Cu441       N451   2.081       .  S
Cu442       N444   2.072       .  S
Cu442       N450   2.072       .  S
N443        N444   1.322       .  A
N443        C447   1.346       .  A
N444        C445   1.345       .  A
C445        C446   1.380       .  A
C445        H448   1.082       .  S
C446        C447   1.380       .  A
C446       C1787   1.437       .  S
C447        H449   1.082       .  S
N450        N451   1.323       .  A
N450        C454   1.344       .  A
N451        C452   1.348       .  A
C452        C453   1.381       .  A
C452        H455   1.082       .  S
C453        C454   1.378       .  A
C453       C1785   1.438       .  S
C454        H456   1.082       .  S
N457        N458   1.324       .  A
N457        C461   1.347       .  A
N457       Cu465   2.081       .  S
N458        C459   1.344       .  A
N458       Cu464   2.072       .  S
C459        C460   1.378       .  A
C459        H462   1.082       .  S
C460        C461   1.381       .  A
C460       C1796   1.438       .  S
C461        H463   1.082       .  S
Cu464       N467   2.073       .  S
Cu465       N475   2.081       .  S
Cu466       N468   2.073       .  S
Cu466       N474   2.074       .  S
N467        N468   1.322       .  A
N467        C471   1.346       .  A
N468        C469   1.345       .  A
C469        C470   1.379       .  A
C469        H472   1.082       .  S
C470        C471   1.381       .  A
C470       C1783   1.438       .  S
C471        H473   1.082       .  S
N474        N475   1.324       .  A
N474        C478   1.345   1_655  A
N475        C476   1.347   1_655  A
C476        C477   1.381       .  A
C476        H479   1.082       .  S
C477        C478   1.379       .  A
C477       C1781   1.439       .  S
C478        H480   1.082       .  S
N481        N482   1.324       .  A
N481        C485   1.348       .  A
N481       Cu489   2.083       .  S
N482        C483   1.344       .  A
N482       Cu488   2.071       .  S
C483        C484   1.378       .  A
C483        H486   1.082       .  S
C484        C485   1.381       .  A
C484       C1786   1.438       .  S
C485        H487   1.082       .  S
Cu488       N491   2.070       .  S
Cu489       N499   2.083       .  S
Cu490       N492   2.065       .  S
Cu490       N498   2.066       .  S
N491        N492   1.322       .  A
N491        C495   1.345       .  A
N492        C493   1.344       .  A
C493        C494   1.378       .  A
C493        H496   1.082       .  S
C494        C495   1.380       .  A
C494       C1779   1.434       .  S
C495        H497   1.082       .  S
N498        N499   1.323       .  A
N498        C502   1.344       .  A
N499        C500   1.348       .  A
C500        C501   1.382       .  A
C500        H503   1.082       .  S
C501        C502   1.378       .  A
C501       C1782   1.438       .  S
C502        H504   1.082       .  S
N505        C510   1.355       .  A
N505        C509   1.353       .  A
N505        H537   1.038       .  S
N506        C513   1.352       .  A
N506        C514   1.352       .  A
N507        C512   1.353       .  A
N507        C511   1.354       .  A
N507        H538   1.036       .  S
N508        C515   1.352       .  A
N508        C516   1.351       .  A
C509        C517   1.388       .  A
C509        C525   1.414       .  A
C510        C526   1.415       .  A
C510        C518   1.388       .  A
C511        C519   1.387       .  A
C511        C528   1.415       .  A
C512        C527   1.416       .  A
C512        C520   1.388       .  A
C513        C525   1.412       .  A
C513        C521   1.387       .  A
C514        C528   1.414       .  A
C514        C522   1.388       .  A
C515        C523   1.386       .  A
C515        C526   1.412       .  A
C516        C524   1.388       .  A
C516        C527   1.414       .  A
C517        C518   1.375       .  A
C517        H529   1.082       .  S
C518        H530   1.082       .  S
C519        C520   1.377       .  A
C519        H531   1.082       .  S
C520        H532   1.082       .  S
C521        C522   1.371       .  A
C521        H533   1.082       .  S
C522        H534   1.082       .  S
C523        C524   1.373       .  A
C523        H535   1.082       .  S
C524        H536   1.082       .  S
C525       C1774   1.449       .  S
C526       C1778   1.454       .  S
C527       C1776   1.451       .  S
C528       C1771   1.453       .  S
N539        N540   1.323       .  A
N539        C543   1.349       .  A
N539       Cu547   2.084       .  S
N540        C541   1.345       .  A
N540       Cu546   2.073       .  S
C541        C542   1.379       .  A
C541        H544   1.082       .  S
C542        C543   1.383       .  A
C542       C1767   1.441       .  S
C543        H545   1.082       .  S
Cu546       N549   2.073       .  S
Cu547       N557   2.084       .  S
Cu548       N550   2.083       .  S
Cu548       N556   2.084       .  S
N549        N550   1.323       .  A
N549        C553   1.345       .  A
N550        C551   1.349       .  A
C551        C552   1.383       .  A
C551        H554   1.082       .  S
C552        C553   1.379       .  A
C552       C1777   1.441       .  S
C553        H555   1.082       .  S
N556        N557   1.325       .  A
N556        C560   1.347       .  A
N557        C558   1.347       .  A
C558        C559   1.380   1_556  A
C558        H561   1.082   1_556  S
C559        C560   1.380   1_554  A
C559       C1769   1.441       .  S
C560        H562   1.082   1_556  S
N563        N564   1.324       .  A
N563        C567   1.347       .  A
N563       Cu571   2.081       .  S
N564        C565   1.345       .  A
N564       Cu570   2.072       .  S
C565        C566   1.378       .  A
C565        H568   1.082       .  S
C566        C567   1.381       .  A
C566       C1793   1.438       .  S
C567        H569   1.082       .  S
Cu570       N573   2.073       .  S
Cu571       N581   2.080       .  S
Cu572       N574   2.073       .  S
Cu572       N580   2.074   1_545  S
N573        N574   1.322       .  A
N573        C577   1.346       .  A
N574        C575   1.345       .  A
C575        C576   1.379       .  A
C575        H578   1.082       .  S
C576        C577   1.380       .  A
C576       C1775   1.437       .  S
C577        H579   1.082       .  S
N580        N581   1.324   1_565  A
N580        C584   1.345       .  A
N581        C582   1.347   1_545  A
C582        C583   1.381       .  A
C582        H585   1.082       .  S
C583        C584   1.379       .  A
C583       C1766   1.438       .  S
C584        H586   1.082       .  S
N587        N588   1.324       .  A
N587        C591   1.347       .  A
N587       Cu595   2.081       .  S
N588        C589   1.345       .  A
N588       Cu594   2.074       .  S
C589        C590   1.379       .  A
C589        H592   1.082       .  S
C590        C591   1.381       .  A
C590       C1798   1.439       .  S
C591        H593   1.082       .  S
Cu594       N597   2.073       .  S
Cu595       N605   2.081       .  S
Cu596       N598   2.072       .  S
Cu596       N604   2.073       .  S
N597        N598   1.322       .  A
N597        C601   1.346       .  A
N598        C599   1.345       .  A
C599        C600   1.380       .  A
C599        H602   1.082       .  S
C600        C601   1.380       .  A
C600       C1763   1.438       .  S
C601        H603   1.082       .  S
N604        N605   1.323       .  A
N604        C608   1.344       .  A
N605        C606   1.348       .  A
C606        C607   1.381       .  A
C606        H609   1.082       .  S
C607        C608   1.378       .  A
C607       C1761   1.439       .  S
C608        H610   1.082       .  S
N611        N612   1.324       .  A
N611        C615   1.348       .  A
N611       Cu619   2.084       .  S
N612        C613   1.344       .  A
N612       Cu618   2.072       .  S
C613        C614   1.378       .  A
C613        H616   1.082       .  S
C614        C615   1.381       .  A
C614       C1762   1.439       .  S
C615        H617   1.082       .  S
Cu618       N621   2.071       .  S
Cu619       N629   2.084       .  S
Cu620       N622   2.065       .  S
Cu620       N628   2.066       .  S
N621        N622   1.322       .  A
N621        C625   1.345       .  A
N622        C623   1.344       .  A
C623        C624   1.378       .  A
C623        H626   1.082       .  S
C624        C625   1.380       .  A
C624       C1759   1.435       .  S
C625        H627   1.082       .  S
N628        N629   1.323       .  A
N628        C632   1.344       .  A
N629        C630   1.348       .  A
C630        C631   1.382       .  A
C630        H633   1.082       .  S
C631        C632   1.377       .  A
C631       C1765   1.438       .  S
C632        H634   1.082       .  S
N635        C640   1.355       .  A
N635        C639   1.354       .  A
N635        H667   1.037       .  S
N636        C643   1.352       .  A
N636        C644   1.352       .  A
N637        C642   1.354       .  A
N637        C641   1.354       .  A
N637        H668   1.036       .  S
N638        C645   1.352       .  A
N638        C646   1.351       .  A
C639        C647   1.388       .  A
C639        C655   1.415       .  A
C640        C656   1.416       .  A
C640        C648   1.387       .  A
C641        C649   1.387       .  A
C641        C658   1.416       .  A
C642        C657   1.417       .  A
C642        C650   1.388       .  A
C643        C655   1.412       .  A
C643        C651   1.387       .  A
C644        C658   1.414       .  A
C644        C652   1.388       .  A
C645        C653   1.386       .  A
C645        C656   1.412       .  A
C646        C654   1.388       .  A
C646        C657   1.415       .  A
C647        C648   1.375       .  A
C647        H659   1.082       .  S
C648        H660   1.082       .  S
C649        C650   1.377       .  A
C649        H661   1.082       .  S
C650        H662   1.082       .  S
C651        C652   1.371       .  A
C651        H663   1.082       .  S
C652        H664   1.082       .  S
C653        C654   1.373       .  A
C653        H665   1.082       .  S
C654        H666   1.082       .  S
C655       C1758   1.450       .  S
C656       C1768   1.455       .  S
C657       C1784   1.451       .  S
C658       C1755   1.453       .  S
N669        N670   1.322       .  A
N669        C673   1.347       .  A
N669       Cu677   2.073       .  S
N670        C671   1.343       .  A
N670       Cu676   2.067       .  S
C671        C672   1.378       .  A
C671        H674   1.082       .  S
C672        C673   1.380       .  A
C672       C1751   1.435       .  S
C673        H675   1.082       .  S
Cu676       N679   2.068       .  S
Cu677       N687   2.073       .  S
Cu678       N680   2.075       .  S
Cu678       N686   2.075       .  S
N679        N680   1.323       .  A
N679        C683   1.344       .  A
N680        C681   1.347       .  A
C681        C682   1.380       .  A
C681        H684   1.082       .  S
C682        C683   1.377       .  A
C682       C1757   1.436       .  S
C683        H685   1.082       .  S
N686        N687   1.324       .  A
N686        C690   1.346   1_556  A
N687        C688   1.345   1_556  A
C688        C689   1.378       .  A
C688        H691   1.082       .  S
C689        C690   1.379       .  A
C689       C1754   1.436       .  S
C690        H692   1.082       .  S
N693        C698   1.353       .  A
N693        C697   1.353       .  A
N693        H725   1.038       .  S
N694        C701   1.352       .  A
N694        C702   1.352       .  A
N695        C700   1.353       .  A
N695        C699   1.354       .  A
N695        H726   1.038       .  S
N696        C703   1.352       .  A
N696        C704   1.351       .  A
C697        C705   1.388       .  A
C697        C713   1.413       .  A
C698        C714   1.413       .  A
C698        C706   1.388       .  A
C699        C707   1.388       .  A
C699        C716   1.416       .  A
C700        C715   1.416       .  A
C700        C708   1.388       .  A
C701        C713   1.411       .  A
C701        C709   1.386       .  A
C702        C716   1.414       .  A
C702        C710   1.388       .  A
C703        C711   1.386       .  A
C703        C714   1.411       .  A
C704        C712   1.388       .  A
C704        C715   1.414       .  A
C705        C706   1.373       .  A
C705        H717   1.082       .  S
C706        H718   1.082       .  S
C707        C708   1.377       .  A
C707        H719   1.082       .  S
C708        H720   1.082       .  S
C709        C710   1.372       .  A
C709        H721   1.082       .  S
C710        H722   1.082       .  S
C711        C712   1.372       .  A
C711        H723   1.082       .  S
C712        H724   1.082       .  S
C713       C1752   1.449       .  S
C714       C1750   1.450       .  S
C715       C1788   1.451       .  S
C716       C1764   1.451       .  S
N727        N728   1.322       .  A
N727        C731   1.347       .  A
N727       Cu735   2.074       .  S
N728        C729   1.343       .  A
N728       Cu734   2.066       .  S
C729        C730   1.378       .  A
C729        H732   1.082       .  S
C730        C731   1.381       .  A
C730       C1749   1.435       .  S
C731        H733   1.082       .  S
Cu734       N737   2.067       .  S
Cu735       N745   2.074       .  S
Cu736       N738   2.075       .  S
Cu736       N744   2.075       .  S
N737        N738   1.323       .  A
N737        C741   1.344       .  A
N738        C739   1.346       .  A
C739        C740   1.380       .  A
C739        H742   1.082       .  S
C740        C741   1.377       .  A
C740       C1773   1.435       .  S
C741        H743   1.082       .  S
N744        N745   1.324       .  A
N744        C748   1.346   1_556  A
N745        C746   1.345   1_556  A
C746        C747   1.378       .  A
C746        H749   1.082       .  S
C747        C748   1.379       .  A
C747       C1747   1.436       .  S
C748        H750   1.082       .  S
N751        N752   1.323       .  A
N751        C755   1.348       .  A
N751       Cu759   2.076       .  S
N752        C753   1.344   1_655  A
N752       Cu758   2.073       .  S
C753        C754   1.378       .  A
C753        H756   1.082       .  S
C754        C755   1.381   1_455  A
C754       C1745   1.438       .  S
C755        H757   1.082   1_655  S
Cu758       N761   2.074       .  S
Cu759       N769   2.076       .  S
Cu760       N762   2.080       .  S
Cu760       N768   2.081       .  S
N761        N762   1.323       .  A
N761        C765   1.346       .  A
N762        C763   1.347       .  A
C763        C764   1.381       .  A
C763        H766   1.082       .  S
C764        C765   1.380       .  A
C764       C1756   1.439       .  S
C765        H767   1.082       .  S
N768        N769   1.324       .  A
N768        C772   1.346       .  A
N769        C770   1.346       .  A
C770        C771   1.379       .  A
C770        H773   1.082       .  S
C771        C772   1.381       .  A
C771       C1800   1.439       .  S
C772        H774   1.082       .  S
N775        N776   1.323       .  A
N775        C779   1.347   1_545  A
N775       Cu783   2.075       .  S
N776        C777   1.344   1_545  A
N776       Cu782   2.073       .  S
C777        C778   1.378       .  A
C777        H780   1.082       .  S
C778        C779   1.381       .  A
C778       C1744   1.438       .  S
C779        H781   1.082       .  S
Cu782       N785   2.074       .  S
Cu783       N793   2.075       .  S
Cu784       N786   2.079       .  S
Cu784       N792   2.080       .  S
N785        N786   1.323       .  A
N785        C789   1.345       .  A
N786        C787   1.347       .  A
C787        C788   1.381       .  A
C787        H790   1.082       .  S
C788        C789   1.380       .  A
C788       C1772   1.439       .  S
C789        H791   1.082       .  S
N792        N793   1.324       .  A
N792        C796   1.346       .  A
N793        C794   1.346       .  A
C794        C795   1.379       .  A
C794        H797   1.082       .  S
C795        C796   1.381       .  A
C795       C1790   1.439       .  S
C796        H798   1.082       .  S
N799        N800   1.324       .  A
N799        C803   1.347       .  A
N799       Cu807   2.074       .  S
N800        C801   1.345       .  A
N800       Cu806   2.079       .  S
C801        C802   1.379       .  A
C801        H804   1.082       .  S
C802        C803   1.380       .  A
C802       C1743   1.438       .  S
C803        H805   1.082       .  S
Cu806       N809   2.080       .  S
Cu807       N817   2.074       .  S
Cu808       N810   2.080       .  S
Cu808       N816   2.080       .  S
N809        N810   1.323       .  A
N809        C813   1.347       .  A
N810        C811   1.347       .  A
C811        C812   1.381       .  A
C811        H814   1.082       .  S
C812        C813   1.381       .  A
C812       C1741   1.443       .  S
C813        H815   1.082       .  S
N816        N817   1.324       .  A
N816        C820   1.345       .  A
N817        C818   1.347       .  A
C818        C819   1.380       .  A
C818        H821   1.082       .  S
C819        C820   1.379       .  A
C819       C1746   1.438       .  S
C820        H822   1.082       .  S
N823        N824   1.323       .  A
N823        C827   1.348   1_455  A
N823       Cu831   2.078       .  S
N824        C825   1.344   1_455  A
N824       Cu830   2.071       .  S
C825        C826   1.379       .  A
C825        H828   1.082       .  S
C826        C827   1.381       .  A
C826       C1737   1.439       .  S
C827        H829   1.082       .  S
Cu830       N833   2.071       .  S
Cu831       N841   2.079       .  S
Cu832       N834   2.078       .  S
Cu832       N840   2.078       .  S
N833        N834   1.323       .  A
N833        C837   1.344       .  A
N834        C835   1.347       .  A
C835        C836   1.381       .  A
C835        H838   1.082       .  S
C836        C837   1.378       .  A
C836       C1739   1.438       .  S
C837        H839   1.082       .  S
N840        N841   1.324       .  A
N840        C844   1.346       .  A
N841        C842   1.346       .  A
C842        C843   1.380       .  A
C842        H845   1.082       .  S
C843        C844   1.379       .  A
C843       C1735   1.439       .  S
C844        H846   1.082       .  S
N847        N848   1.323       .  A
N847        C851   1.347   1_565  A
N847       Cu855   2.078       .  S
N848        C849   1.344   1_565  A
N848       Cu854   2.071       .  S
C849        C850   1.379       .  A
C849        H852   1.082       .  S
C850        C851   1.381       .  A
C850       C1731   1.438       .  S
C851        H853   1.082       .  S
Cu854       N857   2.071       .  S
Cu855       N865   2.078       .  S
Cu856       N858   2.077       .  S
Cu856       N864   2.077       .  S
N857        N858   1.323       .  A
N857        C861   1.344       .  A
N858        C859   1.347       .  A
C859        C860   1.381       .  A
C859        H862   1.082       .  S
C860        C861   1.378       .  A
C860       C1733   1.437       .  S
C861        H863   1.082       .  S
N864        N865   1.324       .  A
N864        C868   1.346       .  A
N865        C866   1.346       .  A
C866        C867   1.380       .  A
C866        H869   1.082       .  S
C867        C868   1.379       .  A
C867       C1729   1.439       .  S
C868        H870   1.082       .  S
N871        N872   1.324       .  A
N871        C875   1.348       .  A
N871       Cu879   2.080       .  S
N872        C873   1.344       .  A
N872       Cu878   2.074       .  S
C873        C874   1.379       .  A
C873        H876   1.082       .  S
C874        C875   1.381       .  A
C874       C1738   1.439       .  S
C875        H877   1.082       .  S
Cu878       N881   2.074       .  S
Cu879       N889   2.080       .  S
Cu880       N882   2.073       .  S
Cu880       N888   2.073       .  S
N881        N882   1.323       .  A
N881        C885   1.346       .  A
N882        C883   1.346       .  A
C883        C884   1.380       .  A
C883        H886   1.082       .  S
C884        C885   1.380       .  A
C884       C1813   1.438       .  S
C885        H887   1.082       .  S
N888        N889   1.324       .  A
N888        C892   1.344       .  A
N889        C890   1.348       .  A
C890        C891   1.381       .  A
C890        H893   1.082       .  S
C891        C892   1.378       .  A
C891       C1732   1.438       .  S
C892        H894   1.082       .  S
N895        N896   1.323       .  A
N895        C899   1.347       .  A
N895       Cu903   2.079       .  S
N896        C897   1.345       .  A
N896       Cu902   2.071       .  S
C897        C898   1.379       .  A
C897        H900   1.082       .  S
C898        C899   1.381       .  A
C898       C1724   1.438       .  S
C899        H901   1.082       .  S
Cu902       N905   2.071       .  S
Cu903       N913   2.079       .  S
Cu904       N906   2.067       .  S
Cu904       N912   2.068       .  S
N905        N906   1.323       .  A
N905        C909   1.345       .  A
N906        C907   1.344       .  A
C907        C908   1.378       .  A
C907        H910   1.082       .  S
C908        C909   1.379       .  A
C908       C1727   1.433       .  S
C909        H911   1.082       .  S
N912        N913   1.323       .  A
N912        C916   1.344       .  A
N913        C914   1.347       .  A
C914        C915   1.381       .  A
C914        H917   1.082       .  S
C915        C916   1.378       .  A
C915       C1726   1.437       .  S
C916        H918   1.082       .  S
N919        N920   1.324       .  A
N919        C923   1.346       .  A
N919       Cu927   2.074       .  S
N920        C921   1.344       .  A
N920       Cu926   2.071       .  S
C921        C922   1.378       .  A
C921        H924   1.082       .  S
C922        C923   1.379       .  A
C922       C1717   1.435       .  S
C923        H925   1.082       .  S
Cu926       N929   2.072       .  S
Cu927       N937   2.074       .  S
Cu928       N930   2.070       .  S
Cu928       N936   2.070       .  S
N929        N930   1.323       .  A
N929        C933   1.346       .  A
N930        C931   1.344       .  A
C931        C932   1.378       .  A
C931        H934   1.082       .  S
C932        C933   1.380       .  A
C932       C1721   1.436       .  S
C933        H935   1.082       .  S
N936        N937   1.323       .  A
N936        C940   1.344   1_565  A
N937        C938   1.346   1_565  A
C938        C939   1.380       .  A
C938        H941   1.082       .  S
C939        C940   1.379       .  A
C939       C1719   1.437       .  S
C940        H942   1.082       .  S
N943        N944   1.324       .  A
N943        C947   1.347       .  A
N943       Cu951   2.081       .  S
N944        C945   1.344       .  A
N944       Cu950   2.070       .  S
C945        C946   1.377       .  A
C945        H948   1.082       .  S
C946        C947   1.381       .  A
C946       C1725   1.437       .  S
C947        H949   1.082       .  S
Cu950       N953   2.070       .  S
Cu951       N961   2.081       .  S
Cu952       N954   2.068       .  S
Cu952       N960   2.068       .  S
N953        N954   1.322       .  A
N953        C957   1.345       .  A
N954        C955   1.345       .  A
C955        C956   1.379       .  A
C955        H958   1.082       .  S
C956        C957   1.380       .  A
C956       C1826   1.436       .  S
C957        H959   1.082       .  S
N960        N961   1.324       .  A
N960        C964   1.343       .  A
N961        C962   1.348       .  A
C962        C963   1.381       .  A
C962        H965   1.082       .  S
C963        C964   1.377       .  A
C963       C1720   1.437       .  S
C964        H966   1.082       .  S
N967        C972   1.354       .  A
N967        C971   1.354       .  A
N967        H999   1.037       .  S
N968        C975   1.352       .  A
N968        C976   1.352       .  A
N969        C974   1.354       .  A
N969        C973   1.354       .  A
N969       H1000   1.036       .  S
N970        C977   1.352       .  A
N970        C978   1.351       .  A
C971        C979   1.388       .  A
C971        C987   1.414       .  A
C972        C988   1.415       .  A
C972        C980   1.388       .  A
C973        C981   1.387       .  A
C973        C990   1.415       .  A
C974        C989   1.416       .  A
C974        C982   1.388       .  A
C975        C987   1.412       .  A
C975        C983   1.386       .  A
C976        C990   1.414       .  A
C976        C984   1.388       .  A
C977        C985   1.386       .  A
C977        C988   1.412       .  A
C978        C986   1.388       .  A
C978        C989   1.414       .  A
C979        C980   1.373       .  A
C979        H991   1.082       .  S
C980        H992   1.082       .  S
C981        C982   1.376       .  A
C981        H993   1.082       .  S
C982        H994   1.082       .  S
C983        C984   1.371       .  A
C983        H995   1.082       .  S
C984        H996   1.082       .  S
C985        C986   1.371       .  A
C985        H997   1.082       .  S
C986        H998   1.082       .  S
C987       C1714   1.451       .  S
C988       C1716   1.452       .  S
C989       C1722   1.450       .  S
C990       C1734   1.452       .  S
N1001      N1002   1.322       .  A
N1001      C1005   1.346       .  A
N1001     Cu1009   2.069       .  S
N1002      C1003   1.343       .  A
N1002     Cu1008   2.069       .  S
C1003      C1004   1.378       .  A
C1003      H1006   1.082       .  S
C1004      C1005   1.380       .  A
C1004      C1711   1.435       .  S
C1005      H1007   1.082       .  S
Cu1008     N1011   2.069       .  S
Cu1009     N1019   2.069       .  S
Cu1010     N1012   2.075       .  S
Cu1010     N1018   2.076       .  S
N1011      N1012   1.323       .  A
N1011      C1015   1.344       .  A
N1012      C1013   1.347       .  A
C1013      C1014   1.381       .  A
C1013      H1016   1.082       .  S
C1014      C1015   1.378       .  A
C1014      C1713   1.436       .  S
C1015      H1017   1.082       .  S
N1018      N1019   1.324       .  A
N1018      C1022   1.346       .  A
N1019      C1020   1.344       .  A
C1020      C1021   1.377       .  A
C1020      H1023   1.082       .  S
C1021      C1022   1.379       .  A
C1021      C1801   1.434       .  S
C1022      H1024   1.082       .  S
N1025      C1030   1.354       .  A
N1025      C1029   1.354       .  A
N1025      H1057   1.037       .  S
N1026      C1033   1.352       .  A
N1026      C1034   1.352       .  A
N1027      C1032   1.354       .  A
N1027      C1031   1.354       .  A
N1027      H1058   1.036       .  S
N1028      C1035   1.352       .  A
N1028      C1036   1.352       .  A
C1029      C1037   1.388       .  A
C1029      C1045   1.415       .  A
C1030      C1046   1.415       .  A
C1030      C1038   1.388       .  A
C1031      C1039   1.387       .  A
C1031      C1048   1.416       .  A
C1032      C1047   1.416       .  A
C1032      C1040   1.388       .  A
C1033      C1045   1.413       .  A
C1033      C1041   1.386       .  A
C1034      C1048   1.414       .  A
C1034      C1042   1.388       .  A
C1035      C1043   1.386       .  A
C1035      C1046   1.412       .  A
C1036      C1044   1.388       .  A
C1036      C1047   1.414       .  A
C1037      C1038   1.373       .  A
C1037      H1049   1.082       .  S
C1038      H1050   1.082       .  S
C1039      C1040   1.376       .  A
C1039      H1051   1.082       .  S
C1040      H1052   1.082       .  S
C1041      C1042   1.371       .  A
C1041      H1053   1.082       .  S
C1042      H1054   1.082       .  S
C1043      C1044   1.371       .  A
C1043      H1055   1.082       .  S
C1044      H1056   1.082       .  S
C1045      C1709   1.451       .  S
C1046      C1708   1.452       .  S
C1047      C1706   1.450       .  S
C1048      C1740   1.452       .  S
N1059      N1060   1.323       .  A
N1059      C1063   1.348       .  A
N1059     Cu1067   2.080       .  S
N1060      C1061   1.344       .  A
N1060     Cu1066   2.067       .  S
C1061      C1062   1.378       .  A
C1061      H1064   1.082       .  S
C1062      C1063   1.382       .  A
C1062      C1715   1.437       .  S
C1063      H1065   1.082       .  S
Cu1066     N1069   2.067       .  S
Cu1067     N1077   2.081       .  S
Cu1068     N1070   2.080       .  S
Cu1068     N1076   2.081       .  S
N1069      N1070   1.323       .  A
N1069      C1073   1.344       .  A
N1070      C1071   1.348       .  A
C1071      C1072   1.382       .  A
C1071      H1074   1.082       .  S
C1072      C1073   1.378       .  A
C1072      C1707   1.437       .  S
C1073      H1075   1.082       .  S
N1076      N1077   1.324       .  A
N1076      C1080   1.346       .  A
N1077      C1078   1.347       .  A
C1078      C1079   1.380       .  A
C1078      H1081   1.082       .  S
C1079      C1080   1.380       .  A
C1079      C1833   1.440       .  S
C1080      H1082   1.082       .  S
N1083      C1088   1.354       .  A
N1083      C1087   1.354       .  A
N1083      H1115   1.034       .  S
N1084      C1091   1.351       .  A
N1084      C1092   1.351       .  A
N1085      C1090   1.353       .  A
N1085      C1089   1.353       .  A
N1085      H1116   1.033       .  S
N1086      C1093   1.351       .  A
N1086      C1094   1.351       .  A
C1087      C1095   1.388       .  A
C1087      C1103   1.415       .  A
C1088      C1104   1.415       .  A
C1088      C1096   1.388       .  A
C1089      C1097   1.388       .  A
C1089      C1106   1.413       .  A
C1090      C1105   1.413       .  A
C1090      C1098   1.388       .  A
C1091      C1103   1.411       .  A
C1091      C1099   1.386       .  A
C1092      C1106   1.413       .  A
C1092      C1100   1.388       .  A
C1093      C1101   1.386       .  A
C1093      C1104   1.412       .  A
C1094      C1102   1.387       .  A
C1094      C1105   1.413       .  A
C1095      C1096   1.373       .  A
C1095      H1107   1.082       .  S
C1096      H1108   1.082       .  S
C1097      C1098   1.375       .  A
C1097      H1109   1.082       .  S
C1098      H1110   1.082       .  S
C1099      C1100   1.372       .  A
C1099      H1111   1.082       .  S
C1100      H1112   1.082       .  S
C1101      C1102   1.372       .  A
C1101      H1113   1.082       .  S
C1102      H1114   1.082       .  S
C1103      C1703   1.449       .  S
C1104      C1712   1.449       .  S
C1105      C1702   1.448       .  S
C1106      C1728   1.448       .  S
N1117      N1118   1.322       .  A
N1117      C1121   1.346       .  A
N1117     Cu1125   2.069       .  S
N1118      C1119   1.344       .  A
N1118     Cu1124   2.070       .  S
C1119      C1120   1.378       .  A
C1119      H1122   1.082       .  S
C1120      C1121   1.380       .  A
C1120      C1704   1.435       .  S
C1121      H1123   1.082       .  S
Cu1124     N1127   2.070       .  S
Cu1125     N1135   2.069       .  S
Cu1126     N1128   2.076       .  S
Cu1126     N1134   2.076       .  S
N1127      N1128   1.323       .  A
N1127      C1131   1.344       .  A
N1128      C1129   1.347       .  A
C1129      C1130   1.381       .  A
C1129      H1132   1.082       .  S
C1130      C1131   1.378       .  A
C1130      C1710   1.437       .  S
C1131      H1133   1.082       .  S
N1134      N1135   1.324       .  A
N1134      C1138   1.346       .  A
N1135      C1136   1.344       .  A
C1136      C1137   1.377       .  A
C1136      H1139   1.082       .  S
C1137      C1138   1.379       .  A
C1137      C1848   1.434       .  S
C1138      H1140   1.082       .  S
N1141      N1142   1.323       .  A
N1141      C1145   1.346       .  A
N1141     Cu1149   2.079       .  S
N1142      C1143   1.345       .  A
N1142     Cu1148   2.071       .  S
C1143      C1144   1.379       .  A
C1143      H1146   1.082       .  S
C1144      C1145   1.380       .  A
C1144      C1697   1.438       .  S
C1145      H1147   1.082       .  S
Cu1148     N1151   2.071       .  S
Cu1149     N1159   2.079       .  S
Cu1150     N1152   2.069       .  S
Cu1150     N1158   2.069       .  S
N1151      N1152   1.323       .  A
N1151      C1155   1.345       .  A
N1152      C1153   1.345       .  A
C1153      C1154   1.379       .  A
C1153      H1156   1.082       .  S
C1154      C1155   1.379       .  A
C1154      C1701   1.434       .  S
C1155      H1157   1.082       .  S
N1158      N1159   1.323       .  A
N1158      C1162   1.344       .  A
N1159      C1160   1.347       .  A
C1160      C1161   1.381       .  A
C1160      H1163   1.082       .  S
C1161      C1162   1.378       .  A
C1161      C1699   1.437       .  S
C1162      H1164   1.082       .  S
N1165      N1166   1.324       .  A
N1165      C1169   1.346       .  A
N1165     Cu1173   2.074       .  S
N1166      C1167   1.344       .  A
N1166     Cu1172   2.071       .  S
C1167      C1168   1.378       .  A
C1167      H1170   1.082       .  S
C1168      C1169   1.379       .  A
C1168      C1693   1.435       .  S
C1169      H1171   1.082       .  S
Cu1172     N1175   2.072       .  S
Cu1173     N1183   2.074       .  S
Cu1174     N1176   2.070       .  S
Cu1174     N1182   2.070   1_455  S
N1175      N1176   1.323       .  A
N1175      C1179   1.346       .  A
N1176      C1177   1.344       .  A
C1177      C1178   1.378       .  A
C1177      H1180   1.082       .  S
C1178      C1179   1.380       .  A
C1178      C1705   1.436       .  S
C1179      H1181   1.082       .  S
N1182      N1183   1.323   1_655  A
N1182      C1186   1.344       .  A
N1183      C1184   1.346   1_455  A
C1184      C1185   1.380       .  A
C1184      H1187   1.082       .  S
C1185      C1186   1.378       .  A
C1185      C1696   1.436       .  S
C1186      H1188   1.082       .  S
N1189      N1190   1.324       .  A
N1189      C1193   1.347       .  A
N1189     Cu1197   2.081       .  S
N1190      C1191   1.344       .  A
N1190     Cu1196   2.071       .  S
C1191      C1192   1.378       .  A
C1191      H1194   1.082       .  S
C1192      C1193   1.381       .  A
C1192      C1700   1.437       .  S
C1193      H1195   1.082       .  S
Cu1196     N1199   2.070       .  S
Cu1197     N1207   2.080       .  S
Cu1198     N1200   2.068       .  S
Cu1198     N1206   2.068       .  S
N1199      N1200   1.322       .  A
N1199      C1203   1.345       .  A
N1200      C1201   1.345       .  A
C1201      C1202   1.379       .  A
C1201      H1204   1.082       .  S
C1202      C1203   1.380       .  A
C1202      C1818   1.436       .  S
C1203      H1205   1.082       .  S
N1206      N1207   1.324       .  A
N1206      C1210   1.343       .  A
N1207      C1208   1.348       .  A
C1208      C1209   1.381       .  A
C1208      H1211   1.082       .  S
C1209      C1210   1.377       .  A
C1209      C1695   1.436       .  S
C1210      H1212   1.082       .  S
O1213     Cu1221   2.013       .  S
O1213      C1223   1.277       .  A
O1214     Cu1221   2.013       .  S
O1214      C1224   1.277       .  A
O1215     Cu1221   2.012       .  S
O1215      C1225   1.277       .  A
O1216     Cu1221   2.014       .  S
O1216      C1226   1.277       .  A
O1217     Cu1222   2.012       .  S
O1217      C1226   1.277       .  A
O1218     Cu1222   2.011       .  S
O1218      C1225   1.277       .  A
O1219     Cu1222   2.008       .  S
O1219      C1224   1.276       .  A
O1220     Cu1222   2.009       .  S
O1220      C1223   1.276       .  A
Cu1221    Cu1222   2.379       .  S
C1223      C1723   1.436       .  S
C1224      C1690   1.436       .  S
C1225      C1691   1.437       .  S
C1226      C1736   1.437       .  S
O1227     Cu1235   2.012       .  S
O1227      C1237   1.277       .  A
O1228     Cu1235   2.014       .  S
O1228      C1238   1.277       .  A
O1229     Cu1235   2.013       .  S
O1229      C1239   1.277       .  A
O1230     Cu1235   2.013       .  S
O1230      C1240   1.277       .  A
O1231     Cu1236   2.008       .  S
O1231      C1240   1.276       .  A
O1232     Cu1236   2.009       .  S
O1232      C1239   1.276       .  A
O1233     Cu1236   2.011       .  S
O1233      C1238   1.277       .  A
O1234     Cu1236   2.012       .  S
O1234      C1237   1.277       .  A
Cu1235    Cu1236   2.379       .  S
C1237      C1686   1.437       .  S
C1238      C1730   1.437       .  S
C1239      C1698   1.436       .  S
C1240      C1688   1.436       .  S
N1241      N1242   1.323       .  A
N1241      C1245   1.347   1_455  A
N1241     Cu1249   2.078       .  S
N1242      C1243   1.345   1_455  A
N1242     Cu1248   2.073       .  S
C1243      C1244   1.380       .  A
C1243      H1246   1.082       .  S
C1244      C1245   1.381       .  A
C1244      C1682   1.440       .  S
C1245      H1247   1.082       .  S
Cu1248     N1251   2.073       .  S
Cu1249     N1259   2.078       .  S
Cu1250     N1252   2.074       .  S
Cu1250     N1258   2.074       .  S
N1251      N1252   1.323       .  A
N1251      C1255   1.344       .  A
N1252      C1253   1.347       .  A
C1253      C1254   1.380       .  A
C1253      H1256   1.082       .  S
C1254      C1255   1.379       .  A
C1254      C1683   1.436       .  S
C1255      H1257   1.082       .  S
N1258      N1259   1.324       .  A
N1258      C1262   1.345       .  A
N1259      C1260   1.346       .  A
C1260      C1261   1.380       .  A
C1260      H1263   1.082       .  S
C1261      C1262   1.379       .  A
C1261      C1689   1.438       .  S
C1262      H1264   1.082       .  S
N1265      N1266   1.323       .  A
N1265      C1269   1.347   1_565  A
N1265     Cu1273   2.078       .  S
N1266      C1267   1.345   1_565  A
N1266     Cu1272   2.073       .  S
C1267      C1268   1.379       .  A
C1267      H1270   1.082       .  S
C1268      C1269   1.381       .  A
C1268      C1678   1.440       .  S
C1269      H1271   1.082       .  S
Cu1272     N1275   2.073       .  S
Cu1273     N1283   2.078       .  S
Cu1274     N1276   2.073       .  S
Cu1274     N1282   2.074       .  S
N1275      N1276   1.323       .  A
N1275      C1279   1.344       .  A
N1276      C1277   1.346       .  A
C1277      C1278   1.380       .  A
C1277      H1280   1.082       .  S
C1278      C1279   1.379       .  A
C1278      C1679   1.436       .  S
C1279      H1281   1.082       .  S
N1282      N1283   1.324       .  A
N1282      C1286   1.345       .  A
N1283      C1284   1.346       .  A
C1284      C1285   1.380       .  A
C1284      H1287   1.082       .  S
C1285      C1286   1.379       .  A
C1285      C1687   1.438       .  S
C1286      H1288   1.082       .  S
N1289      N1290   1.324       .  A
N1289      C1293   1.348       .  A
N1289     Cu1297   2.085       .  S
N1290      C1291   1.344       .  A
N1290     Cu1296   2.074       .  S
C1291      C1292   1.378       .  A
C1291      H1294   1.082       .  S
C1292      C1293   1.382       .  A
C1292      C1681   1.440       .  S
C1293      H1295   1.082       .  S
Cu1296     N1299   2.074       .  S
Cu1297     N1307   2.085       .  S
Cu1298     N1300   2.075       .  S
Cu1298     N1306   2.075       .  S
N1299      N1300   1.322       .  A
N1299      C1303   1.346       .  A
N1300      C1301   1.346       .  A
C1301      C1302   1.381       .  A
C1301      H1304   1.082       .  S
C1302      C1303   1.381       .  A
C1302      C1770   1.440       .  S
C1303      H1305   1.082       .  S
N1306      N1307   1.324       .  A
N1306      C1310   1.344       .  A
N1307      C1308   1.348       .  A
C1308      C1309   1.382       .  A
C1308      H1311   1.082       .  S
C1309      C1310   1.378       .  A
C1309      C1677   1.440       .  S
C1310      H1312   1.082       .  S
N1313      N1314   1.324       .  A
N1313      C1317   1.347       .  A
N1313     Cu1321   2.080       .  S
N1314      C1315   1.345       .  A
N1314     Cu1320   2.075       .  S
C1315      C1316   1.379       .  A
C1315      H1318   1.082       .  S
C1316      C1317   1.381       .  A
C1316      C1692   1.439       .  S
C1317      H1319   1.082       .  S
Cu1320     N1323   2.074       .  S
Cu1321     N1331   2.080       .  S
Cu1322     N1324   2.071       .  S
Cu1322     N1330   2.071       .  S
N1323      N1324   1.322       .  A
N1323      C1327   1.345       .  A
N1324      C1325   1.346       .  A
C1325      C1326   1.380       .  A
C1325      H1328   1.082       .  S
C1326      C1327   1.380       .  A
C1326      C1675   1.437       .  S
C1327      H1329   1.082       .  S
N1330      N1331   1.324       .  A
N1330      C1334   1.344       .  A
N1331      C1332   1.347       .  A
C1332      C1333   1.381       .  A
C1332      H1335   1.082       .  S
C1333      C1334   1.378       .  A
C1333      C1673   1.437       .  S
C1334      H1336   1.082       .  S
N1337      N1338   1.323       .  A
N1337      C1341   1.346       .  A
N1337     Cu1345   2.077       .  S
N1338      C1339   1.344       .  A
N1338     Cu1344   2.066       .  S
C1339      C1340   1.377       .  A
C1339      H1342   1.082       .  S
C1340      C1341   1.380       .  A
C1340      C1667   1.435       .  S
C1341      H1343   1.082       .  S
Cu1344     N1347   2.067       .  S
Cu1345     N1355   2.077       .  S
Cu1346     N1348   2.071       .  S
Cu1346     N1354   2.071       .  S
N1347      N1348   1.322       .  A
N1347      C1351   1.345       .  A
N1348      C1349   1.344       .  A
C1349      C1350   1.379       .  A
C1349      H1352   1.082       .  S
C1350      C1351   1.379       .  A
C1350      C1672   1.434       .  S
C1351      H1353   1.082       .  S
N1354      N1355   1.323       .  A
N1354      C1358   1.344   1_565  A
N1355      C1356   1.347   1_565  A
C1356      C1357   1.380       .  A
C1356      H1359   1.082       .  S
C1357      C1358   1.379       .  A
C1357      C1670   1.438       .  S
C1358      H1360   1.082       .  S
N1361      N1362   1.324       .  A
N1361      C1365   1.348       .  A
N1361     Cu1369   2.082       .  S
N1362      C1363   1.344       .  A
N1362     Cu1368   2.070       .  S
C1363      C1364   1.377       .  A
C1363      H1366   1.082       .  S
C1364      C1365   1.381       .  A
C1364      C1674   1.437       .  S
C1365      H1367   1.082       .  S
Cu1368     N1371   2.069       .  S
Cu1369     N1379   2.082       .  S
Cu1370     N1372   2.069       .  S
Cu1370     N1378   2.069       .  S
N1371      N1372   1.322       .  A
N1371      C1375   1.345       .  A
N1372      C1373   1.345       .  A
C1373      C1374   1.379       .  A
C1373      H1376   1.082       .  S
C1374      C1375   1.380       .  A
C1374      C1748   1.436       .  S
C1375      H1377   1.082       .  S
N1378      N1379   1.324       .  A
N1378      C1382   1.344       .  A
N1379      C1380   1.348       .  A
C1380      C1381   1.382       .  A
C1380      H1383   1.082       .  S
C1381      C1382   1.377       .  A
C1381      C1669   1.438       .  S
C1382      H1384   1.082       .  S
N1385      N1386   1.323       .  A
N1385      C1389   1.348       .  A
N1385     Cu1393   2.084       .  S
N1386      C1387   1.344       .  A
N1386     Cu1392   2.068       .  S
C1387      C1388   1.378       .  A
C1387      H1390   1.082       .  S
C1388      C1389   1.383       .  A
C1388      C1664   1.439       .  S
C1389      H1391   1.082       .  S
Cu1392     N1395   2.068       .  S
Cu1393     N1403   2.085   1_554  S
Cu1394     N1396   2.084       .  S
Cu1394     N1402   2.086   1_554  S
N1395      N1396   1.323       .  A
N1395      C1399   1.344       .  A
N1396      C1397   1.348       .  A
C1397      C1398   1.383       .  A
C1397      H1400   1.082       .  S
C1398      C1399   1.378       .  A
C1398      C1666   1.440       .  S
C1399      H1401   1.082       .  S
N1402      N1403   1.325       .  A
N1402      C1406   1.347       .  A
N1403      C1404   1.347       .  A
C1404      C1405   1.381       .  A
C1404      H1407   1.082       .  S
C1405      C1406   1.381       .  A
C1405      C1742   1.443       .  S
C1406      H1408   1.082       .  S
N1409      C1414   1.353       .  A
N1409      C1413   1.354       .  A
N1409      H1441   1.037       .  S
N1410      C1417   1.352       .  A
N1410      C1418   1.351       .  A
N1411      C1416   1.354       .  A
N1411      C1415   1.352       .  A
N1411      H1442   1.037       .  S
N1412      C1419   1.351       .  A
N1412      C1420   1.352       .  A
C1413      C1421   1.388       .  A
C1413      C1429   1.416       .  A
C1414      C1430   1.414       .  A
C1414      C1422   1.387       .  A
C1415      C1423   1.388       .  A
C1415      C1432   1.414       .  A
C1416      C1431   1.414       .  A
C1416      C1424   1.387       .  A
C1417      C1429   1.412       .  A
C1417      C1425   1.386       .  A
C1418      C1432   1.413       .  A
C1418      C1426   1.388       .  A
C1419      C1427   1.387       .  A
C1419      C1430   1.412       .  A
C1420      C1428   1.387       .  A
C1420      C1431   1.412       .  A
C1421      C1422   1.374       .  A
C1421      H1433   1.082       .  S
C1422      H1434   1.082       .  S
C1423      C1424   1.376       .  A
C1423      H1435   1.082       .  S
C1424      H1436   1.082       .  S
C1425      C1426   1.372       .  A
C1425      H1437   1.082       .  S
C1426      H1438   1.082       .  S
C1427      C1428   1.371       .  A
C1427      H1439   1.082       .  S
C1428      H1440   1.082       .  S
C1429      C1665   1.453       .  S
C1430      C1662   1.449       .  S
C1431      C1684   1.450       .  S
C1432      C1659   1.448       .  S
N1443      N1444   1.322       .  A
N1443      C1447   1.347       .  A
N1443     Cu1451   2.071       .  S
N1444      C1445   1.343       .  A
N1444     Cu1450   2.065       .  S
C1445      C1446   1.377       .  A
C1445      H1448   1.082       .  S
C1446      C1447   1.380       .  A
C1446      C1657   1.434       .  S
C1447      H1449   1.082       .  S
Cu1450     N1453   2.065       .  S
Cu1451     N1461   2.071   1_554  S
Cu1452     N1454   2.074       .  S
Cu1452     N1460   2.075   1_554  S
N1453      N1454   1.322       .  A
N1453      C1457   1.344       .  A
N1454      C1455   1.347       .  A
C1455      C1456   1.380       .  A
C1455      H1458   1.082       .  S
C1456      C1457   1.378       .  A
C1456      C1656   1.435       .  S
C1457      H1459   1.082       .  S
N1460      N1461   1.324       .  A
N1460      C1464   1.346       .  A
N1461      C1462   1.344       .  A
C1462      C1463   1.377       .  A
C1462      H1465   1.082       .  S
C1463      C1464   1.379       .  A
C1463      C1760   1.434       .  S
C1464      H1466   1.082       .  S
N1467      C1472   1.354       .  A
N1467      C1471   1.353       .  A
N1467      H1499   1.037       .  S
N1468      C1475   1.352       .  A
N1468      C1476   1.352       .  A
N1469      C1474   1.353       .  A
N1469      C1473   1.354       .  A
N1469      H1500   1.037       .  S
N1470      C1477   1.352       .  A
N1470      C1478   1.351       .  A
C1471      C1479   1.387       .  A
C1471      C1487   1.414       .  A
C1472      C1488   1.416       .  A
C1472      C1480   1.388       .  A
C1473      C1481   1.387       .  A
C1473      C1490   1.414       .  A
C1474      C1489   1.414       .  A
C1474      C1482   1.388       .  A
C1475      C1487   1.411       .  A
C1475      C1483   1.387       .  A
C1476      C1490   1.413       .  A
C1476      C1484   1.388       .  A
C1477      C1485   1.386       .  A
C1477      C1488   1.412       .  A
C1478      C1486   1.388       .  A
C1478      C1489   1.413       .  A
C1479      C1480   1.374       .  A
C1479      H1491   1.082       .  S
C1480      H1492   1.082       .  S
C1481      C1482   1.376       .  A
C1481      H1493   1.082       .  S
C1482      H1494   1.082       .  S
C1483      C1484   1.371       .  A
C1483      H1495   1.082       .  S
C1484      H1496   1.082       .  S
C1485      C1486   1.372       .  A
C1485      H1497   1.082       .  S
C1486      H1498   1.082       .  S
C1487      C1655   1.449       .  S
C1488      C1663   1.453       .  S
C1489      C1671   1.448       .  S
C1490      C1680   1.450       .  S
N1501      C1506   1.353       .  A
N1501      C1505   1.353       .  A
N1501      H1533   1.034       .  S
N1502      C1509   1.352       .  A
N1502      C1510   1.352       .  A
N1503      C1508   1.353       .  A
N1503      C1507   1.353       .  A
N1503      H1534   1.035       .  S
N1504      C1511   1.352       .  A
N1504      C1512   1.352       .  A
C1505      C1513   1.388       .  A
C1505      C1521   1.414       .  A
C1506      C1522   1.414       .  A
C1506      C1514   1.388       .  A
C1507      C1515   1.387       .  A
C1507      C1524   1.415       .  A
C1508      C1523   1.414       .  A
C1508      C1516   1.387       .  A
C1509      C1521   1.412       .  A
C1509      C1517   1.386       .  A
C1510      C1524   1.414       .  A
C1510      C1518   1.387       .  A
C1511      C1519   1.386       .  A
C1511      C1522   1.412       .  A
C1512      C1520   1.387       .  A
C1512      C1523   1.413       .  A
C1513      C1514   1.374       .  A
C1513      H1525   1.082       .  S
C1514      H1526   1.082       .  S
C1515      C1516   1.376       .  A
C1515      H1527   1.082       .  S
C1516      H1528   1.082       .  S
C1517      C1518   1.372       .  A
C1517      H1529   1.082       .  S
C1518      H1530   1.082       .  S
C1519      C1520   1.372       .  A
C1519      H1531   1.082       .  S
C1520      H1532   1.082       .  S
C1521      C1658   1.449       .  S
C1522      C1654   1.448       .  S
C1523      C1676   1.451       .  S
C1524      C1651   1.451       .  S
N1535      N1536   1.322       .  A
N1535      C1539   1.347       .  A
N1535     Cu1543   2.070       .  S
N1536      C1537   1.342       .  A
N1536     Cu1542   2.064       .  S
C1537      C1538   1.377       .  A
C1537      H1540   1.082       .  S
C1538      C1539   1.380       .  A
C1538      C1653   1.434       .  S
C1539      H1541   1.082       .  S
Cu1542     N1545   2.064       .  S
Cu1543     N1553   2.071   1_554  S
Cu1544     N1546   2.074       .  S
Cu1544     N1552   2.075   1_554  S
N1545      N1546   1.322       .  A
N1545      C1549   1.343       .  A
N1546      C1547   1.346       .  A
C1547      C1548   1.380       .  A
C1547      H1550   1.082       .  S
C1548      C1549   1.377       .  A
C1548      C1661   1.435       .  S
C1549      H1551   1.082       .  S
N1552      N1553   1.324       .  A
N1552      C1556   1.346       .  A
N1553      C1554   1.344       .  A
C1554      C1555   1.377       .  A
C1554      H1557   1.082       .  S
C1555      C1556   1.379       .  A
C1555      C1780   1.434       .  S
C1556      H1558   1.082       .  S
N1559      N1560   1.324       .  A
N1559      C1563   1.347       .  A
N1559     Cu1567   2.080       .  S
N1560      C1561   1.345       .  A
N1560     Cu1566   2.075       .  S
C1561      C1562   1.379       .  A
C1561      H1564   1.082       .  S
C1562      C1563   1.381       .  A
C1562      C1685   1.439       .  S
C1563      H1565   1.082       .  S
Cu1566     N1569   2.075       .  S
Cu1567     N1577   2.080       .  S
Cu1568     N1570   2.073       .  S
Cu1568     N1576   2.072       .  S
N1569      N1570   1.323       .  A
N1569      C1573   1.346       .  A
N1570      C1571   1.346       .  A
C1571      C1572   1.380       .  A
C1571      H1574   1.082       .  S
C1572      C1573   1.380       .  A
C1572      C1652   1.438       .  S
C1573      H1575   1.082       .  S
N1576      N1577   1.324       .  A
N1576      C1580   1.344       .  A
N1577      C1578   1.347       .  A
C1578      C1579   1.381       .  A
C1578      H1581   1.082       .  S
C1579      C1580   1.378       .  A
C1579      C1649   1.438       .  S
C1580      H1582   1.082       .  S
N1583      N1584   1.324       .  A
N1583      C1587   1.346       .  A
N1583     Cu1591   2.078       .  S
N1584      C1585   1.344       .  A
N1584     Cu1590   2.066       .  S
C1585      C1586   1.377       .  A
C1585      H1588   1.082       .  S
C1586      C1587   1.380       .  A
C1586      C1646   1.435       .  S
C1587      H1589   1.082       .  S
Cu1590     N1593   2.066       .  S
Cu1591     N1601   2.078       .  S
Cu1592     N1594   2.070       .  S
Cu1592     N1600   2.071   1_455  S
N1593      N1594   1.322       .  A
N1593      C1597   1.345       .  A
N1594      C1595   1.344       .  A
C1595      C1596   1.379       .  A
C1595      H1598   1.082       .  S
C1596      C1597   1.379       .  A
C1596      C1660   1.434       .  S
C1597      H1599   1.082       .  S
N1600      N1601   1.323   1_655  A
N1600      C1604   1.344       .  A
N1601      C1602   1.347   1_455  A
C1602      C1603   1.381       .  A
C1602      H1605   1.082       .  S
C1603      C1604   1.379       .  A
C1603      C1648   1.438       .  S
C1604      H1606   1.082       .  S
N1607      N1608   1.324       .  A
N1607      C1611   1.348       .  A
N1607     Cu1615   2.083       .  S
N1608      C1609   1.344       .  A
N1608     Cu1614   2.070       .  S
C1609      C1610   1.378       .  A
C1609      H1612   1.082       .  S
C1610      C1611   1.381       .  A
C1610      C1650   1.438       .  S
C1611      H1613   1.082       .  S
Cu1614     N1617   2.070       .  S
Cu1615     N1625   2.083       .  S
Cu1616     N1618   2.069       .  S
Cu1616     N1624   2.070       .  S
N1617      N1618   1.322       .  A
N1617      C1621   1.345       .  A
N1618      C1619   1.345       .  A
C1619      C1620   1.379       .  A
C1619      H1622   1.082       .  S
C1620      C1621   1.380       .  A
C1620      C1753   1.436       .  S
C1621      H1623   1.082       .  S
N1624      N1625   1.324       .  A
N1624      C1628   1.344       .  A
N1625      C1626   1.348       .  A
C1626      C1627   1.382       .  A
C1626      H1629   1.082       .  S
C1627      C1628   1.378       .  A
C1627      C1647   1.438       .  S
C1628      H1630   1.082       .  S
O1631     Cu1639   2.008       .  S
O1631      C1641   1.276       .  A
O1632     Cu1639   2.008       .  S
O1632      C1642   1.276       .  A
O1633     Cu1639   2.008       .  S
O1633      C1643   1.276       .  A
O1634     Cu1639   2.008       .  S
O1634      C1644   1.276       .  A
O1635     Cu1640   2.006       .  S
O1635      C1644   1.276       .  A
O1636     Cu1640   2.006       .  S
O1636      C1643   1.276       .  A
O1637     Cu1640   2.007       .  S
O1637      C1642   1.276       .  A
O1638     Cu1640   2.007       .  S
O1638      C1641   1.276       .  A
Cu1639    Cu1640   2.381       .  S
C1641      C1718   1.433       .  S
C1642      C1645   1.433       .  S
C1643      C1668   1.433       .  S
C1644      C1694   1.433       .  S
C1645      C1646   1.205       .  T
C1647      C1648   1.206       .  T
C1649      C1650   1.206       .  T
C1651      C1652   1.207       .  T
C1653      C1654   1.204       .  T
C1655      C1656   1.205       .  T
C1657      C1658   1.205       .  T
C1659      C1660   1.204       .  T
C1661      C1662   1.205       .  T
C1663      C1664   1.208       .  T
C1665      C1666   1.208       .  T
C1667      C1668   1.204       .  T
C1669      C1670   1.206       .  T
C1671      C1672   1.205       .  T
C1673      C1674   1.206       .  T
C1675      C1676   1.206       .  T
C1677      C1678   1.207       .  T
C1679      C1680   1.206       .  T
C1681      C1682   1.207       .  T
C1683      C1684   1.206       .  T
C1685      C1686   1.207       .  T
C1687      C1688   1.206       .  T
C1689      C1690   1.206       .  T
C1691      C1692   1.207       .  T
C1693      C1694   1.204       .  T
C1695      C1696   1.205       .  T
C1697      C1698   1.206       .  T
C1699      C1700   1.206       .  T
C1701      C1702   1.205       .  T
C1703      C1704   1.205       .  T
C1705      C1706   1.206       .  T
C1707      C1708   1.207       .  T
C1709      C1710   1.206       .  T
C1711      C1712   1.205       .  T
C1713      C1714   1.206       .  T
C1715      C1716   1.207       .  T
C1717      C1718   1.205       .  T
C1719      C1720   1.206       .  T
C1721      C1722   1.206       .  T
C1723      C1724   1.206       .  T
C1725      C1726   1.206       .  T
C1727      C1728   1.204       .  T
C1729      C1730   1.207       .  T
C1731      C1732   1.207       .  T
C1733      C1734   1.207       .  T
C1735      C1736   1.207       .  T
C1737      C1738   1.207       .  T
C1739      C1740   1.207       .  T
C1741      C1742   1.209       .  T
C1743      C1744   1.206       .  T
C1745      C1746   1.206       .  T
C1747      C1748   1.205       .  T
C1749      C1750   1.205       .  T
C1751      C1752   1.205       .  T
C1753      C1754   1.205       .  T
C1755      C1756   1.208       .  T
C1757      C1758   1.206       .  T
C1759      C1760   1.204       .  T
C1761      C1762   1.207       .  T
C1763      C1764   1.207       .  T
C1765      C1766   1.207       .  T
C1767      C1768   1.209       .  T
C1769      C1770   1.208       .  T
C1771      C1772   1.207       .  T
C1773      C1774   1.205       .  T
C1775      C1776   1.206       .  T
C1777      C1778   1.209       .  T
C1779      C1780   1.204       .  T
C1781      C1782   1.207       .  T
C1783      C1784   1.207       .  T
C1785      C1786   1.207       .  T
C1787      C1788   1.206       .  T
C1789      C1790   1.207       .  T
C1791      C1792   1.207       .  T
C1793      C1794   1.207       .  T
C1795      C1796   1.207       .  T
C1797      C1798   1.207       .  T
C1799      C1800   1.207       .  T
C1801      C1802   1.204       .  T
C1803      C1804   1.208       .  T
C1805      C1806   1.206       .  T
C1807      C1808   1.207       .  T
C1809      C1810   1.206       .  T
C1811      C1812   1.208       .  T
C1813      C1814   1.206       .  T
C1815      C1816   1.206       .  T
C1817      C1818   1.205       .  T
C1819      C1820   1.207       .  T
C1821      C1822   1.206       .  T
C1823      C1824   1.206       .  T
C1825      C1826   1.205       .  T
C1827      C1828   1.205       .  T
C1829      C1830   1.208       .  T
C1831      C1832   1.206       .  T
C1833      C1834   1.208       .  T
C1835      C1836   1.207       .  T
C1837      C1838   1.206       .  T
C1839      C1840   1.207       .  T
C1841      C1842   1.207       .  T
C1843      C1844   1.207       .  T
C1845      C1846   1.207       .  T
C1847      C1848   1.204       .  T
C1849      C1850   1.207       .  T
C1851      C1852   1.206       .  T
C1853      C1854   1.205       .  T
C1855      C1856   1.208       .  T
C1857      C1858   1.207       .  T
C1859      C1860   1.207       .  T
