geometry optimzed in LAMMPS
_audit_creation_date              2020-11-30 
_audit_creation_method            'lammps2cif' 
_symmetry_space_group_name_H-M    'P1' 
_symmetry_Int_Tables_number       1 
_symmetry_cell_setting            triclinic 
loop_ 
_symmetry_equiv_pos_as_xyz 
  x,y,z 
_cell_length_a                    69.17066607 
_cell_length_b                    69.24700230138032 
_cell_length_c                    96.92087171544257 
_cell_angle_alpha                 90.01793340682639 
_cell_angle_beta                  89.97804078548369 
_cell_angle_gamma                 121.20814963248218 
loop_ 
_atom_site_label 
_atom_site_type_symbol 
_atom_site_fract_x 
_atom_site_fract_y 
_atom_site_fract_z 
_atom_site_charge 
N1          N  0.31415478  0.31721592  0.64693330    -0.26900
N2          N  0.32702267  0.33190018  0.63736414    -0.34700
C3          C  0.31461543  0.33790683  0.62993372     0.01400
C4          C  0.29274693  0.32658899  0.63498637     0.07500
C5          C  0.29309610  0.31368956  0.64586446    -0.05600
H6          H  0.32135301  0.35028094  0.62173268     0.08100
H7          H  0.27910538  0.30258878  0.65250246     0.09300
Cu8        Cu  0.36116662  0.34439503  0.63470750     0.44200
Cu9        Cu  0.32648553  0.30302899  0.66083867     0.42000
Cu10       Cu  0.38649746  0.32176573  0.65568243     0.43900
N11         N  0.39479701  0.35416599  0.63281715    -0.34300
N12         N  0.40413537  0.34529253  0.64036089    -0.28500
C13         C  0.42557338  0.35369613  0.63614701    -0.04600
C14         C  0.42995407  0.36871087  0.62544244     0.07600
C15         C  0.41005903  0.36866237  0.62369015     0.01400
H16         H  0.43701897  0.34910007  0.64052679     0.09000
H17         H  0.40661882  0.37777851  0.61597371     0.08100
N18         N  0.36575557  0.29854254  0.67041535    -0.35700
N19         N  0.34415885  0.29154538  0.67234687    -0.27900
C20         C  0.33600648  0.27589206  0.68244531    -0.03100
C21         C  0.35329980  0.27290755  0.68706791     0.05500
C22         C  0.37188147  0.28768186  0.67921455     0.03600
H23         H  0.31876737  0.26740902  0.68613901     0.08700
H24         H  0.38858517  0.28999255  0.67958191     0.07500
N25         N  0.98758719  0.32899567  0.65001228    -0.26900
N26         N  0.99068238  0.34518925  0.64144072    -0.34700
C27         C  0.01093478  0.35382799  0.63532749     0.01400
C28         C  0.02132958  0.34261604  0.64022966     0.07500
C29         C  0.00591701  0.32693429  0.64956330    -0.05600
H30         H  0.01739958  0.36711170  0.62767782     0.08100
H31         H  0.00789217  0.31509842  0.65576316     0.09300
Cu32       Cu  0.96711307  0.35449907  0.63783407     0.44200
Cu33       Cu  0.95831355  0.31057598  0.66177369     0.42000
Cu34       Cu  0.91314742  0.32197020  0.65422608     0.43900
N35         N  0.94015493  0.35860289  0.63355707    -0.34300
N36         N  0.92000936  0.34622900  0.63926332    -0.28500
C37         C  0.90584080  0.35190231  0.63362534    -0.04600
C38         C  0.91769916  0.36870676  0.62389017     0.07600
C39         C  0.93943944  0.37256302  0.62422149     0.01400
H40         H  0.88826547  0.34438696  0.63647903     0.09000
H41         H  0.95356861  0.38416029  0.61783037     0.08100
N42         N  0.91100454  0.29928488  0.66910656    -0.35700
N43         N  0.92722309  0.29514046  0.67192270    -0.27900
C44         C  0.92025384  0.27994650  0.68224864    -0.03100
C45         C  0.89864272  0.27430442  0.68621887     0.05500
C46         C  0.89337131  0.28686157  0.67753096     0.03600
H47         H  0.93038573  0.27377193  0.68668581     0.08700
H48         H  0.87778008  0.28690264  0.67715522     0.07500
N49         N  0.19668580  0.35303448  0.61483137    -0.26900
N50         N  0.21045663  0.36282709  0.60425648    -0.34700
C51         C  0.22784933  0.35948995  0.60516690     0.01400
C52         C  0.22520953  0.34686908  0.61686955     0.07500
C53         C  0.20516017  0.34311889  0.62277834    -0.05600
H54         H  0.24156740  0.36608239  0.59780249     0.08100
H55         H  0.19706310  0.33363136  0.63202866     0.09300
Cu56       Cu  0.20588417  0.38021994  0.58853164     0.44200
Cu57       Cu  0.16703738  0.35395051  0.61762801     0.42000
Cu58       Cu  0.15908548  0.38680516  0.59059545     0.43900
N59         N  0.19865272  0.39637523  0.57328949    -0.34300
N60         N  0.18100012  0.39883366  0.57400875    -0.28500
C61         C  0.18041205  0.40970292  0.56265951    -0.04600
C62         C  0.19871512  0.41435811  0.55444823     0.07600
C63         C  0.20991605  0.40567296  0.56150585     0.01400
H64         H  0.16773895  0.41403616  0.56061653     0.09000
H65         H  0.22510979  0.40606073  0.55833527     0.08100
N66         N  0.13782340  0.37178895  0.60726764    -0.35700
N67         N  0.13987631  0.35944309  0.61691886    -0.27900
C68         C  0.12211424  0.35178011  0.62562513    -0.03100
C69         C  0.10855384  0.36000621  0.62129102     0.05500
C70         C  0.11908312  0.37246885  0.60960097     0.03600
H71         H  0.11935694  0.34116254  0.63449114     0.08700
H72         H  0.11325408  0.38096362  0.60295491     0.07500
N73         N  0.98267793  0.67198438  0.64963561    -0.26900
N74         N  0.98453510  0.65890071  0.64047719    -0.34700
C75         C  0.00439089  0.67075343  0.63389282     0.01400
C76         C  0.01589422  0.69243997  0.63917580     0.07500
C77         C  0.00161792  0.69263893  0.64919231    -0.05600
H78         H  0.01010332  0.66395392  0.62589635     0.08100
H79         H  0.00453336  0.70681491  0.65547517     0.09300
Cu80       Cu  0.96023547  0.62552911  0.63709514     0.44200
Cu81       Cu  0.95378069  0.66039440  0.66181652     0.42000
Cu82       Cu  0.90770342  0.60139488  0.65519301     0.43900
N83         N  0.93404293  0.59287644  0.63389801    -0.34300
N84         N  0.91432183  0.58373483  0.64022784    -0.28500
C85         C  0.90083373  0.56264397  0.63527699    -0.04600
C86         C  0.91280272  0.55832164  0.62543373     0.07600
C87         C  0.93376499  0.57804717  0.62486614     0.01400
H88         H  0.88360655  0.55132330  0.63859634     0.09000
H89         H  0.94766800  0.58185708  0.61804788     0.08100
N90         N  0.90660674  0.62278476  0.67007328    -0.35700
N91         N  0.92294696  0.64391258  0.67238829    -0.27900
C92         C  0.91649907  0.65249201  0.68267622    -0.03100
C93         C  0.89510365  0.63602557  0.68713866     0.05500
C94         C  0.88950160  0.61743742  0.67889316     0.03600
H95         H  0.92691935  0.66935003  0.68679116     0.08700
H96         H  0.87398533  0.60115500  0.67920556     0.07500
N97         N  0.32150543  0.00471829  0.65425896    -0.26900
N98         N  0.33446097  0.00313552  0.64485027    -0.34700
C99         C  0.32229277  0.98379776  0.63783537     0.01400
C100        C  0.30054977  0.97241917  0.64303554     0.07500
C101        C  0.30061991  0.98613141  0.65351143    -0.05600
H102        H  0.32878015  0.97858322  0.62938065     0.08100
H103        H  0.28636677  0.98330916  0.65970245     0.09300
Cu104      Cu  0.36783757  0.02729540  0.64106421     0.44200
Cu105      Cu  0.33303973  0.03315916  0.66673419     0.42000
Cu106      Cu  0.39265229  0.07810289  0.66000524     0.43900
N107        N  0.40084869  0.05294823  0.63789563    -0.34300
N108        N  0.41035747  0.07219947  0.64474857    -0.28500
C109        C  0.43159736  0.08567128  0.63997204    -0.04600
C110        C  0.43563036  0.07410885  0.62973239     0.07600
C111        C  0.41564726  0.05346162  0.62870633     0.01400
H112        H  0.44323141  0.10257464  0.64367437     0.09000
H113        H  0.41184920  0.03997872  0.62152975     0.08100
N114        N  0.37104861  0.08039415  0.67412526    -0.35700
N115        N  0.34981719  0.06449050  0.67657947    -0.27900
C116        C  0.34105410  0.07223070  0.68595852    -0.03100
C117        C  0.35747594  0.09420165  0.68962215     0.05500
C118        C  0.37624487  0.09857109  0.68185629     0.03600
H119        H  0.32391066  0.06236181  0.68970620     0.08700
H120        H  0.39253879  0.11403503  0.68153905     0.07500
N121        N  0.19898552  0.85383825  0.61697630    -0.26900
N122        N  0.21249724  0.85810725  0.60628491    -0.34700
C123        C  0.23114282  0.87852377  0.60781038     0.01400
C124        C  0.22949634  0.88798732  0.62000972     0.07500
C125        C  0.20885017  0.87170686  0.62560484    -0.05600
H126        H  0.24516940  0.88542869  0.60067703     0.08100
H127        H  0.20155657  0.87269058  0.63525809     0.09300
Cu128      Cu  0.20673979  0.83648294  0.59003299     0.44200
Cu129      Cu  0.16825312  0.82340404  0.61936233     0.42000
Cu130      Cu  0.15905237  0.78222163  0.59222796     0.43900
N131        N  0.19957501  0.81226712  0.57521217    -0.34300
N132        N  0.18159090  0.79176018  0.57602424    -0.28500
C133        C  0.18140748  0.77951562  0.56519556    -0.04600
C134        C  0.20034665  0.79304750  0.55724249     0.07600
C135        C  0.21148811  0.81370956  0.56389469     0.01400
H136        H  0.16862938  0.76202045  0.56337635     0.09000
H137        H  0.22717732  0.82861578  0.56083508     0.08100
N138        N  0.13709175  0.77631867  0.60833989    -0.35700
N139        N  0.13969615  0.79092388  0.61803830    -0.27900
C140        C  0.12093233  0.78146630  0.62596790    -0.03100
C141        C  0.10579237  0.76002568  0.62087601     0.05500
C142        C  0.11690523  0.75737148  0.60984443     0.03600
H143        H  0.11819028  0.78989091  0.63447368     0.08700
H144        H  0.11080040  0.74284871  0.60317001     0.07500
N145        N  0.56079676  0.13336554  0.54913381    -0.36200
N146        N  0.52521954  0.12044951  0.56967776    -0.56800
N147        N  0.54753664  0.10540963  0.58821677    -0.36200
N148        N  0.58414005  0.12008471  0.56845670    -0.56800
C149        C  0.55072236  0.14443012  0.54441525     0.27400
C150        C  0.58177963  0.14361595  0.54356575     0.27400
C151        C  0.53158408  0.10450114  0.59674763     0.27400
C152        C  0.56323219  0.10473907  0.59619261     0.27400
C153        C  0.51607600  0.12527259  0.55888034     0.36000
C154        C  0.50853579  0.10966205  0.57909648     0.36000
C155        C  0.59719346  0.12418262  0.55716844     0.36000
C156        C  0.59041572  0.10970417  0.57767774     0.36000
C157        C  0.56531828  0.16161845  0.53558565    -0.21500
C158        C  0.58489878  0.16110394  0.53504514    -0.21500
C159        C  0.53714154  0.10308581  0.61030579    -0.21500
C160        C  0.55710475  0.10319976  0.60995255    -0.21500
C161        C  0.49346094  0.11739604  0.56138891    -0.22500
C162        C  0.48863794  0.10738073  0.57416654    -0.22500
C163        C  0.61177109  0.11631451  0.55921139    -0.22500
C164        C  0.60753469  0.10721370  0.57222740    -0.22500
C165        C  0.52855551  0.13917057  0.54765229    -0.17900
C166        C  0.59809643  0.13744683  0.54582391    -0.17900
C167        C  0.58208283  0.10395020  0.59130621    -0.17900
C168        C  0.51158323  0.10373229  0.59255084    -0.17900
H169        H  0.56229429  0.17348325  0.53018456     0.15000
H170        H  0.59985308  0.17256448  0.52918738     0.15000
H171        H  0.52770495  0.10191597  0.61949939     0.15000
H172        H  0.56599289  0.10207508  0.61881274     0.15000
H173        H  0.48182711  0.11920464  0.55483439     0.13300
H174        H  0.47249407  0.09986625  0.57938527     0.13300
H175        H  0.62458511  0.11761107  0.55220735     0.13300
H176        H  0.61636634  0.10000437  0.57720538     0.13300
H177        H  0.55317569  0.11857713  0.55493037     0.26600
H178        H  0.54640242  0.10388172  0.57754225     0.26600
N179        N  0.47662825  0.28006811  0.50297971    -0.26900
N180        N  0.48581367  0.27502378  0.51321133    -0.34700
C181        C  0.49434425  0.29180745  0.52247146     0.01400
C182        C  0.49048785  0.30846308  0.51789504     0.07500
C183        C  0.47911415  0.30037986  0.50545204    -0.05600
H184        H  0.50332051  0.29206814  0.53167053     0.08100
H185        H  0.47302370  0.30849149  0.49868655     0.09300
Cu186      Cu  0.48749156  0.24621148  0.51394412     0.44200
Cu187      Cu  0.46188309  0.25869198  0.48629041     0.42000
Cu188      Cu  0.46279359  0.20548890  0.48676250     0.43900
N189        N  0.48875823  0.21715354  0.51339440    -0.34300
N190        N  0.47962149  0.20175805  0.50358407    -0.28500
C191        C  0.48338867  0.18494377  0.50657328    -0.04600
C192        C  0.49543555  0.19004178  0.51891140     0.07600
C193        C  0.49861695  0.21078247  0.52277146     0.01400
H194        H  0.47758353  0.17002730  0.50028729     0.09000
H195        H  0.50773937  0.22095389  0.53159949     0.08100
N196        N  0.44764579  0.21464270  0.47142201    -0.35700
N197        N  0.44762136  0.23376451  0.47133108    -0.27900
C198        C  0.43617890  0.23412991  0.46022916    -0.03100
C199        C  0.42851474  0.21433297  0.45294928     0.05500
C200        C  0.43610375  0.20236481  0.46030554     0.03600
H201        H  0.43334450  0.24771330  0.45779019     0.08700
H202        H  0.43320033  0.18581893  0.45787047     0.07500
N203        N  0.55893846  0.43260946  0.54750188    -0.36200
N204        N  0.58219255  0.47074411  0.56647441    -0.56800
N205        N  0.54411246  0.44958004  0.58527424    -0.36200
N206        N  0.52196340  0.41057429  0.56728785    -0.56800
C207        C  0.58009652  0.44329709  0.54219299     0.27400
C208        C  0.54814448  0.41111238  0.54274074     0.27400
C209        C  0.55968742  0.46644080  0.59332728     0.27400
C210        C  0.52753911  0.43449506  0.59369446     0.27400
C211        C  0.59630962  0.47914600  0.55553878     0.36000
C212        C  0.58842649  0.48819437  0.57525080     0.36000
C213        C  0.51299094  0.39589728  0.55666958     0.36000
C214        C  0.50486981  0.40502072  0.57623547     0.36000
C215        C  0.58255006  0.42861380  0.53365596    -0.21500
C216        C  0.56242541  0.40830483  0.53403146    -0.21500
C217        C  0.55286711  0.46206377  0.60700922    -0.21500
C218        C  0.53255277  0.44189774  0.60723698    -0.21500
C219        C  0.61155861  0.50201340  0.55735672    -0.22500
C220        C  0.60648914  0.50778028  0.56981772    -0.22500
C221        C  0.49010857  0.38101728  0.55884883    -0.22500
C222        C  0.48494081  0.38683989  0.57123567    -0.22500
C223        C  0.59719211  0.46601431  0.54468364    -0.17900
C224        C  0.52565272  0.39405318  0.54588251    -0.17900
C225        C  0.50745026  0.41486116  0.58938482    -0.17900
C226        C  0.57923935  0.48625574  0.58857549    -0.17900
H227        H  0.59740190  0.43204787  0.52788234     0.15000
H228        H  0.55885653  0.39314058  0.52860736     0.15000
H229        H  0.56155830  0.47239715  0.61590760     0.15000
H230        H  0.52255048  0.43368138  0.61633334     0.15000
H231        H  0.62518725  0.51325388  0.55053039     0.13300
H232        H  0.61542510  0.52437874  0.57448210     0.13300
H233        H  0.47847839  0.36709461  0.55233276     0.13300
H234        H  0.46850609  0.37831674  0.57614237     0.13300
H235        H  0.55176311  0.44004721  0.55319198     0.26600
H236        H  0.54351270  0.44967732  0.57456302     0.26600
N237        N  0.70587292  0.51061239  0.49728779    -0.26900
N238        N  0.70910788  0.49694236  0.50510649    -0.34700
C239        C  0.69266998  0.48733873  0.51458887     0.01400
C240        C  0.67821744  0.49533005  0.51274424     0.07500
C241        C  0.68697324  0.50992106  0.50155497    -0.05600
H242        H  0.69151976  0.47550354  0.52230066     0.08100
H243        H  0.68053250  0.51984501  0.49715449     0.09300
Cu244      Cu  0.73685463  0.49365563  0.50359138     0.44200
Cu245      Cu  0.72901492  0.53034602  0.48211673     0.42000
Cu246      Cu  0.78433798  0.53319396  0.48357487     0.43900
N247        N  0.76782568  0.49645377  0.50462154    -0.34300
N248        N  0.78590923  0.51144810  0.49774125    -0.28500
C249        C  0.80371454  0.50997975  0.50190997    -0.04600
C250        C  0.79629428  0.49328259  0.51196823     0.07600
C251        C  0.77342934  0.48510942  0.51329273     0.01400
H252        H  0.82083524  0.52084146  0.49827276     0.09000
H253        H  0.76166079  0.47217117  0.52029155     0.08100
N254        N  0.77566013  0.54983191  0.46921309    -0.35700
N255        N  0.75585280  0.54847441  0.46855973    -0.27900
C256        C  0.75574405  0.56021637  0.45753504    -0.03100
C257        C  0.77638670  0.56939493  0.45094558     0.05500
C258        C  0.78861197  0.56253737  0.45863396     0.03600
H259        H  0.74150532  0.56163250  0.45443520     0.08700
H260        H  0.80548566  0.56602738  0.45651605     0.07500
N261        N  0.78713869  0.28179852  0.49733296    -0.26900
N262        N  0.77196402  0.27445725  0.50729269    -0.34700
C263        C  0.77902368  0.28985119  0.51737319     0.01400
C264        C  0.79982326  0.30805763  0.51370151     0.07500
C265        C  0.80445328  0.30247551  0.50082511    -0.05600
H266        H  0.76916009  0.28817720  0.52644366     0.08100
H267        H  0.81920047  0.31266646  0.49448298     0.09300
Cu268      Cu  0.74163156  0.24466888  0.50656414     0.44200
Cu269      Cu  0.78187459  0.26194625  0.47993353     0.42000
Cu270      Cu  0.72647663  0.20585308  0.47928653     0.43900
N271        N  0.71113690  0.21506310  0.50577551    -0.34300
N272        N  0.70484322  0.20000020  0.49581912    -0.28500
C273        C  0.68432416  0.18207709  0.49902469    -0.04600
C274        C  0.67770005  0.18629689  0.51169091     0.07600
C275        C  0.69514977  0.20746065  0.51549803     0.01400
H276        H  0.67538504  0.16689388  0.49287238     0.09000
H277        H  0.69640663  0.21671640  0.52478063     0.08100
N278        N  0.75274973  0.21686349  0.46503230    -0.35700
N279        N  0.77208529  0.23657859  0.46516372    -0.27900
C280        C  0.78490058  0.23724721  0.45449895    -0.03100
C281        C  0.77318299  0.21708426  0.44736612     0.05500
C282        C  0.75291165  0.20460585  0.45431194     0.03600
H283        H  0.80166940  0.25129507  0.45223891     0.08700
H284        H  0.73929313  0.18771766  0.45185163     0.07500
N285        N  0.84875636  0.42880481  0.54735661    -0.36200
N286        N  0.86546666  0.40803723  0.56613413    -0.56800
N287        N  0.88195520  0.44620122  0.58477629    -0.36200
N288        N  0.86316646  0.46593173  0.56684488    -0.56800
C289        C  0.83807352  0.40742134  0.54241628     0.27400
C290        C  0.83754201  0.43860401  0.54251250     0.27400
C291        C  0.88461842  0.43165148  0.59270098     0.27400
C292        C  0.88281981  0.46216190  0.59326068     0.27400
C293        C  0.86013488  0.39413721  0.55516318     0.36000
C294        C  0.87827455  0.40359320  0.57453357     0.36000
C295        C  0.85714300  0.47418191  0.55612928     0.36000
C296        C  0.87391136  0.48304181  0.57598228     0.36000
C297        C  0.81999181  0.40368480  0.53424215    -0.21500
C298        C  0.81975215  0.42342228  0.53422529    -0.21500
C299        C  0.88743111  0.43857092  0.60636008    -0.21500
C300        C  0.88633057  0.45784510  0.60670904    -0.21500
C301        C  0.86970137  0.38092305  0.55655517    -0.22500
C302        C  0.88121383  0.38692695  0.56882628    -0.22500
C303        C  0.86400463  0.49658602  0.55847995    -0.22500
C304        C  0.87466794  0.50221663  0.57105491    -0.22500
C305        C  0.84481750  0.39155942  0.54466977    -0.17900
C306        C  0.84336860  0.46109953  0.54502825    -0.17900
C307        C  0.88171036  0.48115757  0.58910298    -0.17900
C308        C  0.88562623  0.41291909  0.58782578    -0.17900
H309        H  0.80819021  0.38835283  0.52882462     0.15000
H310        H  0.80773123  0.42620698  0.52879982     0.15000
H311        H  0.89009631  0.43062018  0.61516713     0.15000
H312        H  0.88800090  0.46761477  0.61583174     0.15000
H313        H  0.86819218  0.36800445  0.54957680     0.13300
H314        H  0.89034924  0.37955525  0.57316385     0.13300
H315        H  0.86116147  0.50756534  0.55195720     0.13300
H316        H  0.88181518  0.51845977  0.57609030     0.13300
H317        H  0.86407343  0.43696645  0.55261715     0.26600
H318        H  0.88205492  0.44659751  0.57406156     0.26600
N319        N  0.67646543  0.00682477  0.64811242    -0.26900
N320        N  0.66112432  0.00409240  0.63890331    -0.34700
C321        C  0.65494712  0.98531949  0.63155887     0.01400
C322        C  0.66681908  0.97558328  0.63633238     0.07500
C323        C  0.68024014  0.98963000  0.64691669    -0.05600
H324        H  0.64293048  0.97940094  0.62314893     0.08100
H325        H  0.69260449  0.98809010  0.65286474     0.09300
Cu326      Cu  0.64996867  0.02644660  0.63564037     0.44200
Cu327      Cu  0.69311596  0.03508067  0.66086294     0.42000
Cu328      Cu  0.67732894  0.07737378  0.65486077     0.43900
N329        N  0.64273232  0.05186854  0.63304372    -0.34300
N330        N  0.65301624  0.07084985  0.64015988    -0.28500
C331        C  0.64543678  0.08428798  0.63598790    -0.04600
C332        C  0.62954564  0.07327508  0.62563131     0.07600
C333        C  0.62828813  0.05268463  0.62411948     0.01400
H334        H  0.65110046  0.10077088  0.64030291     0.09000
H335        H  0.61804795  0.03943367  0.61682854     0.08100
N336        N  0.70154111  0.08098714  0.66887297    -0.35700
N337        N  0.70754089  0.06596761  0.67112249    -0.27900
C338        C  0.72363063  0.07399501  0.68096677    -0.03100
C339        C  0.72783912  0.09502464  0.68512780     0.05500
C340        C  0.71347698  0.09879469  0.67720571     0.03600
H341        H  0.73117757  0.06486934  0.68503417     0.08700
H342        H  0.71175719  0.11345301  0.67744530     0.07500
N343        N  0.67422386  0.67733907  0.64932371    -0.26900
N344        N  0.66050456  0.66473832  0.63929722    -0.34700
C345        C  0.65499170  0.67717841  0.63152297     0.01400
C346        C  0.66564005  0.69885373  0.63676937     0.07500
C347        C  0.67755453  0.69832722  0.64819946    -0.05600
H348        H  0.64369560  0.67068375  0.62276236     0.08100
H349        H  0.68822026  0.71227046  0.65498056     0.09300
Cu350      Cu  0.64924223  0.63110522  0.63603244     0.44200
Cu351      Cu  0.68837043  0.66472882  0.66324211     0.42000
Cu352      Cu  0.67209211  0.60536611  0.65608913     0.43900
N353        N  0.63948093  0.59770751  0.63343535    -0.34300
N354        N  0.64825157  0.58797436  0.64069041    -0.28500
C355        C  0.63965967  0.56671033  0.63606070    -0.04600
C356        C  0.62457252  0.56289552  0.62546211     0.07600
C357        C  0.62494204  0.58297871  0.62411034     0.01400
H358        H  0.64426618  0.55500948  0.63998232     0.09000
H359        H  0.61608943  0.58697260  0.61650802     0.08100
N360        N  0.69558437  0.62618009  0.67088478    -0.35700
N361        N  0.70132207  0.64719835  0.67370463    -0.27900
C362        C  0.71700540  0.65514460  0.68382261    -0.03100
C363        C  0.72153335  0.63841201  0.68755373     0.05500
C364        C  0.70746266  0.62035142  0.67903778     0.03600
H365        H  0.72437046  0.67190400  0.68810384     0.08700
H366        H  0.70601490  0.60405746  0.67858947     0.07500
N367        N  0.64579005  0.79677424  0.61104274    -0.26900
N368        N  0.63471163  0.78196289  0.60111179    -0.34700
C369        C  0.63639183  0.76368833  0.60310248     0.01400
C370        C  0.64907136  0.76690100  0.61488081     0.07500
C371        C  0.65471127  0.78812131  0.61965837    -0.05600
H372        H  0.62879340  0.74904065  0.59643332     0.08100
H373        H  0.66500776  0.79692369  0.62853425     0.09300
Cu374      Cu  0.61794299  0.78664300  0.58488058     0.44200
Cu375      Cu  0.64889952  0.82846075  0.61212347     0.42000
Cu376      Cu  0.62127411  0.83958985  0.58384168     0.43900
N377        N  0.60322109  0.79525660  0.56927672    -0.34300
N378        N  0.60451543  0.81496161  0.56892145    -0.28500
C379        C  0.59364394  0.81583436  0.55765393    -0.04600
C380        C  0.58509694  0.79568169  0.55055468     0.07600
C381        C  0.59148214  0.78301238  0.55822025     0.01400
H382        H  0.59213189  0.83011379  0.55484353     0.09000
H383        H  0.58789823  0.76617259  0.55594216     0.08100
N384        N  0.63901102  0.86232937  0.59954050    -0.35700
N385        N  0.64913656  0.85864453  0.60988748    -0.27900
C386        C  0.65860238  0.87694317  0.61819324    -0.03100
C387        C  0.65433225  0.89297140  0.61275304     0.05500
C388        C  0.64170703  0.88286207  0.60096922     0.03600
H389        H  0.66780049  0.87838598  0.62753839     0.08700
H390        H  0.63422427  0.88946442  0.59408812     0.07500
O391        O  0.84067589  0.65776843  0.73457621    -0.72500
O392        O  0.79794064  0.65725454  0.76343779    -0.73500
O393        O  0.83946920  0.65751641  0.76421976    -0.62100
O394        O  0.79912122  0.65770791  0.73400321    -0.70600
O395        O  0.78001673  0.62034738  0.73384864    -0.70100
O396        O  0.81991538  0.62016136  0.76414028    -0.61400
O397        O  0.77861081  0.61988821  0.76314347    -0.73900
O398        O  0.82125827  0.62040977  0.73476746    -0.72700
Cu399      Cu  0.82000562  0.65887892  0.74906323     1.04600
Cu400      Cu  0.79933437  0.61895942  0.74896379     1.04300
C401        C  0.83766908  0.63898943  0.73011394     0.93700
C402        C  0.78138186  0.63844678  0.76777163     0.92800
C403        C  0.83599926  0.63876221  0.76903200     0.84900
C404        C  0.78303341  0.63900700  0.72920358     0.91200
O405        O  0.84460603  0.19548605  0.73330756    -0.72500
O406        O  0.80201185  0.15156290  0.76213798    -0.73500
O407        O  0.80332246  0.15274130  0.73261490    -0.62100
O408        O  0.84341808  0.19428991  0.76275645    -0.70600
O409        O  0.82416773  0.21175868  0.76252306    -0.70100
O410        O  0.78402497  0.17015439  0.73278580    -0.61400
O411        O  0.78307674  0.16932939  0.76200179    -0.73900
O412        O  0.82500246  0.21256939  0.73336211    -0.72700
Cu413      Cu  0.82402625  0.17289263  0.74770558     1.04600
Cu414      Cu  0.80341738  0.19151763  0.74766736     1.04300
C415        C  0.84147776  0.21102479  0.72877922     0.93700
C416        C  0.78576398  0.15360432  0.76666279     0.92800
C417        C  0.78720499  0.15484233  0.72796731     0.84900
C418        C  0.84022270  0.20973498  0.76734349     0.91200
O419        O  0.37159172  0.17369143  0.73259208    -0.72500
O420        O  0.36990212  0.21360017  0.76200932    -0.73500
O421        O  0.37103601  0.17324021  0.76169506    -0.62100
O422        O  0.37068191  0.21433316  0.73284508    -0.70600
O423        O  0.33327114  0.19437212  0.73229644    -0.70100
O424        O  0.33360955  0.15319749  0.76165248    -0.61400
O425        O  0.33249208  0.19391332  0.76173063    -0.73900
O426        O  0.33419252  0.15338921  0.73232694    -0.72700
Cu427      Cu  0.37204343  0.19439852  0.74728178     1.04600
Cu428      Cu  0.33205288  0.17301908  0.74697440     1.04300
C429        C  0.35322960  0.15693945  0.72795779     0.93700
C430        C  0.35103759  0.21021663  0.76654550     0.92800
C431        C  0.35248953  0.15663090  0.76621602     0.84900
C432        C  0.35203838  0.21111166  0.72805465     0.91200
N433        N  0.31344074  0.32066483  0.84482427    -0.26900
N434        N  0.32569714  0.33374538  0.85516328    -0.34700
C435        C  0.31321297  0.33947110  0.86270407     0.01400
C436        C  0.29189329  0.32960062  0.85696703     0.07500
C437        C  0.29263429  0.31787226  0.84553088    -0.05600
H438        H  0.31923140  0.34985288  0.87187806     0.08100
H439        H  0.27884717  0.30728218  0.83863236     0.09300
Cu440      Cu  0.35837311  0.34274503  0.85972532     0.44200
Cu441      Cu  0.32558417  0.30577565  0.83133119     0.42000
Cu442      Cu  0.38274726  0.31780016  0.84059273     0.43900
N443        N  0.39079454  0.35007862  0.86332880    -0.34300
N444        N  0.40002328  0.34053392  0.85634559    -0.28500
C445        C  0.42116665  0.34855863  0.86102664    -0.04600
C446        C  0.42544115  0.36415411  0.87134726     0.07600
C447        C  0.40572857  0.36455900  0.87256381     0.01400
H448        H  0.43266185  0.34369526  0.85706270     0.09000
H449        H  0.40230973  0.37438481  0.87974846     0.08100
N450        N  0.36271250  0.29607495  0.82503923    -0.35700
N451        N  0.34237053  0.29170823  0.82147505    -0.27900
C452        C  0.33464551  0.27656377  0.81107715    -0.03100
C453        C  0.35088286  0.27106951  0.80797635     0.05500
C454        C  0.36838718  0.28391553  0.81708775     0.03600
H455        H  0.31844712  0.27024179  0.80614625     0.08700
H456        H  0.38410794  0.28422727  0.81811657     0.07500
N457        N  0.98310397  0.31796655  0.84946268    -0.26900
N458        N  0.98513847  0.33240327  0.85908623    -0.34700
C459        C  0.00378951  0.33864797  0.86653957     0.01400
C460        C  0.01413872  0.32748503  0.86153860     0.07500
C461        C  0.00061666  0.31464242  0.85056920    -0.05600
H462        H  0.00941876  0.35072346  0.87488895     0.08100
H463        H  0.00307484  0.30341085  0.84404734     0.09300
Cu464      Cu  0.96248531  0.34287824  0.86218892     0.44200
Cu465      Cu  0.95582718  0.30352009  0.83585497     0.42000
Cu466      Cu  0.91386132  0.32127005  0.84094517     0.43900
N467        N  0.93844025  0.35167484  0.86470202    -0.34300
N468        N  0.92029061  0.34387702  0.85688017    -0.28500
C469        C  0.90774413  0.35228982  0.86148778    -0.04600
C470        C  0.91867730  0.36614018  0.87275028     0.07600
C471        C  0.93803276  0.36517639  0.87447024     0.01400
H472        H  0.89180067  0.34846173  0.85703364     0.09000
H473        H  0.95060406  0.37300676  0.88250527     0.08100
N474        N  0.91123732  0.29791283  0.82644319    -0.35700
N475        N  0.92606971  0.29151224  0.82457251    -0.27900
C476        C  0.91851746  0.27592297  0.81446798    -0.03100
C477        C  0.89802611  0.27238469  0.80968532     0.05500
C478        C  0.89396939  0.28658445  0.81760550     0.03600
H479        H  0.92740397  0.26784899  0.81083918     0.08700
H480        H  0.87929699  0.28828104  0.81727792     0.07500
N481        N  0.19401984  0.34759944  0.88423908    -0.26900
N482        N  0.20910027  0.35907880  0.89397135    -0.34700
C483        C  0.22706770  0.35682410  0.89216002     0.01400
C484        C  0.22326581  0.34323058  0.88076112     0.07500
C485        C  0.20215783  0.33781805  0.87594038    -0.05600
H486        H  0.24212344  0.36519231  0.89846864     0.08100
H487        H  0.19334458  0.32755038  0.86705206     0.09300
Cu488      Cu  0.20598949  0.37840993  0.90918963     0.44200
Cu489      Cu  0.16317118  0.34593581  0.88256622     0.42000
Cu490      Cu  0.15598345  0.38037326  0.90807688     0.43900
N491        N  0.19967772  0.39735765  0.92304247    -0.34300
N492        N  0.18101164  0.39812082  0.92255055    -0.28500
C493        C  0.18150098  0.41166292  0.93267151    -0.04600
C494        C  0.20152170  0.41988165  0.93987357     0.07600
C495        C  0.21264787  0.41045784  0.93349554     0.01400
H496        H  0.16827643  0.41526323  0.93460549     0.09000
H497        H  0.22894007  0.41292197  0.93623068     0.08100
N498        N  0.13192592  0.36039737  0.89356916    -0.35700
N499        N  0.13413289  0.34775307  0.88423676    -0.27900
C500        C  0.11504635  0.33704308  0.87664371    -0.03100
C501        C  0.10011512  0.34327717  0.88148448     0.05500
C502        C  0.11156495  0.35810694  0.89220686     0.03600
H503        H  0.11228132  0.32543902  0.86835331     0.08700
H504        H  0.10575114  0.36700594  0.89849579     0.07500
N505        N  0.55698799  0.13108804  0.94817656    -0.36200
N506        N  0.57867708  0.11544963  0.92894139    -0.56800
N507        N  0.54177487  0.10061685  0.90975945    -0.36200
N508        N  0.52105462  0.11804591  0.92832525    -0.56800
C509        C  0.57843272  0.14200005  0.95303421     0.27400
C510        C  0.54700706  0.14209827  0.95313964     0.27400
C511        C  0.55671822  0.09856490  0.90179761     0.27400
C512        C  0.52668309  0.10127536  0.90119128     0.27400
C513        C  0.59278019  0.12112982  0.93984270     0.36000
C514        C  0.58405935  0.10375444  0.92016714     0.36000
C515        C  0.51197096  0.12279589  0.93919647     0.36000
C516        C  0.50448351  0.10788877  0.91881894     0.36000
C517        C  0.58193990  0.15982957  0.96136732    -0.21500
C518        C  0.56211337  0.15988059  0.96144168    -0.21500
C519        C  0.55081753  0.09750421  0.88803007    -0.21500
C520        C  0.53193227  0.09931671  0.88764065    -0.21500
C521        C  0.60706911  0.11287254  0.93806203    -0.22500
C522        C  0.60143773  0.10171427  0.92563633    -0.22500
C523        C  0.48946598  0.11538491  0.93667487    -0.22500
C524        C  0.48469693  0.10590172  0.92375323    -0.22500
C525        C  0.59476119  0.13596358  0.95049305    -0.17900
C526        C  0.52458009  0.13644207  0.95044989    -0.17900
C527        C  0.50755236  0.10225569  0.90531241    -0.17900
C528        C  0.57530507  0.09724154  0.90665431    -0.17900
H529        H  0.59726434  0.17171725  0.96676985     0.15000
H530        H  0.55928895  0.17188061  0.96684992     0.15000
H531        H  0.55932936  0.09578328  0.87916468     0.15000
H532        H  0.52302201  0.09911269  0.87841243     0.15000
H533        H  0.62054827  0.11519516  0.94483905     0.13300
H534        H  0.60974400  0.09373307  0.92094122     0.13300
H535        H  0.47792800  0.11727965  0.94327754     0.13300
H536        H  0.46864662  0.09884824  0.91847261     0.13300
H537        H  0.54907509  0.11595515  0.94271948     0.26600
H538        H  0.54060405  0.09935866  0.92044897     0.26600
N539        N  0.78747173  0.28158732  0.99692326    -0.26900
N540        N  0.77113881  0.27683278  0.98803770    -0.34700
C541        C  0.77827196  0.29368638  0.97888909     0.01400
C542        C  0.80030173  0.31005040  0.98206846     0.07500
C543        C  0.80558219  0.30190767  0.99367928    -0.05600
H544        H  0.76795158  0.29402633  0.97062527     0.08100
H545        H  0.82147135  0.30995524  0.99920002     0.09300
Cu546      Cu  0.74003561  0.24746437  0.98833655     0.44200
Cu547      Cu  0.78319353  0.25902761  0.01252616     0.42000
Cu548      Cu  0.72891934  0.20338323  0.01217578     0.43900
N549        N  0.71068536  0.21635199  0.98806310    -0.34300
N550        N  0.70625459  0.19965497  0.99656905    -0.28500
C551        C  0.68608719  0.18151103  0.99306205    -0.04600
C552        C  0.67757946  0.18719906  0.98176782     0.07600
C553        C  0.69373816  0.20946396  0.97898429     0.01400
H554        H  0.67854436  0.16527991  0.99812810     0.09000
H555        H  0.69336120  0.22000131  0.97088113     0.08100
N556        N  0.75480083  0.21335225  0.02677456    -0.35700
N557        N  0.77402144  0.23314726  0.02677677    -0.27900
C558        C  0.78668436  0.23399005  0.03755513    -0.03100
C559        C  0.77500619  0.21390409  0.04475455     0.05500
C560        C  0.75484773  0.20120178  0.03764270     0.03600
H561        H  0.80319601  0.24830781  0.04000043     0.08700
H562        H  0.74121401  0.18434877  0.04016179     0.07500
N563        N  0.67197474  0.00635559  0.84598013    -0.26900
N564        N  0.65683022  0.00393619  0.85520994    -0.34700
C565        C  0.64845018  0.98398942  0.86153971     0.01400
C566        C  0.65854107  0.97288491  0.85604636     0.07500
C567        C  0.67350900  0.98770079  0.84617550    -0.05600
H568        H  0.63591113  0.97815762  0.86964369     0.08100
H569        H  0.68441593  0.98508114  0.83945211     0.09300
Cu570      Cu  0.64709299  0.02696322  0.85895674     0.44200
Cu571      Cu  0.68939373  0.03532890  0.83386335     0.42000
Cu572      Cu  0.67550033  0.07941516  0.84159283     0.43900
N573        N  0.63889224  0.05129752  0.86203162    -0.34300
N574        N  0.64970420  0.07123590  0.85595934    -0.28500
C575        C  0.64119119  0.08365364  0.86069854    -0.04600
C576        C  0.62401048  0.07069777  0.87008066     0.07600
C577        C  0.62315940  0.05030011  0.87062826     0.01400
H578        H  0.64712442  0.10085233  0.85760811     0.09000
H579        H  0.61253757  0.03603982  0.87720847     0.08100
N580        N  0.69911022  0.08233255  0.82686872    -0.35700
N581        N  0.70398160  0.06661796  0.82401127    -0.27900
C582        C  0.71932466  0.07407800  0.81372503    -0.03100
C583        C  0.72431811  0.09545533  0.80977637     0.05500
C584        C  0.71124042  0.10009960  0.81846652     0.03600
H585        H  0.72596548  0.06437860  0.80924419     0.08700
H586        H  0.71055513  0.11533316  0.81878462     0.07500
N587        N  0.66530097  0.67358256  0.84232128    -0.26900
N588        N  0.64961072  0.66034331  0.85132383    -0.34700
C589        C  0.64204412  0.67208574  0.85796366     0.01400
C590        C  0.65343239  0.69401636  0.85311461     0.07500
C591        C  0.66803520  0.69437618  0.84306997    -0.05600
H592        H  0.62939536  0.66512023  0.86601854     0.08100
H593        H  0.68036046  0.70882904  0.83718348     0.09300
Cu594      Cu  0.63992354  0.62751232  0.85598296     0.44200
Cu595      Cu  0.68281206  0.66215113  0.83042072     0.42000
Cu596      Cu  0.66915438  0.60472236  0.83997736     0.43900
N597        N  0.63444925  0.59625332  0.86128138    -0.34300
N598        N  0.64547864  0.58769092  0.85531264    -0.28500
C599        C  0.63870682  0.56737220  0.86086164    -0.04600
C600        C  0.62262895  0.56293571  0.87093823     0.07600
C601        C  0.62038462  0.58172119  0.87085461     0.01400
H602        H  0.64484249  0.55659699  0.85755612     0.09000
H603        H  0.60955717  0.58480194  0.87736614     0.08100
N604        N  0.69191724  0.62431753  0.82474012    -0.35700
N605        N  0.69701119  0.64487472  0.82115114    -0.27900
C606        C  0.71248502  0.65222277  0.81093638    -0.03100
C607        C  0.71723722  0.63546447  0.80791150     0.05500
C608        C  0.70388194  0.61811398  0.81696632     0.03600
H609        H  0.71964175  0.66853680  0.80601053     0.08700
H610        H  0.70315267  0.60222105  0.81811344     0.07500
N611        N  0.63396381  0.79203417  0.87921170    -0.26900
N612        N  0.62097780  0.77674628  0.88847071    -0.34700
C613        C  0.62139490  0.75782948  0.88632132     0.01400
C614        C  0.63562061  0.76123724  0.87528777     0.07500
C615        C  0.64310761  0.78315008  0.87095390    -0.05600
H616        H  0.61179863  0.74269978  0.89241686     0.08100
H617        H  0.65468672  0.79215400  0.86258844     0.09300
Cu618      Cu  0.60381201  0.78171672  0.90435135     0.44200
Cu619      Cu  0.63838260  0.82417334  0.87850723     0.42000
Cu620      Cu  0.60892186  0.83480582  0.90668354     0.43900
N621        N  0.58878675  0.78967702  0.92013289    -0.34300
N622        N  0.59069553  0.80961388  0.92104114    -0.28500
C623        C  0.57902096  0.80980668  0.93211379    -0.04600
C624        C  0.56930642  0.78890784  0.93849058     0.07600
C625        C  0.57590900  0.77660391  0.93062088     0.01400
H626        H  0.57761178  0.82403606  0.93522246     0.09000
H627        H  0.57156086  0.75936996  0.93232268     0.08100
N628        N  0.62645524  0.85691069  0.89068971    -0.35700
N629        N  0.63714428  0.85349117  0.88053618    -0.27900
C630        C  0.64556928  0.87122205  0.87181523    -0.03100
C631        C  0.63961484  0.88629458  0.87665504     0.05500
C632        C  0.62773602  0.87669181  0.88869428     0.03600
H633        H  0.65465129  0.87264235  0.86241269     0.08700
H634        H  0.62036759  0.88345983  0.89555972     0.07500
N635        N  0.85656533  0.43249075  0.94961140    -0.36200
N636        N  0.87101361  0.40976562  0.93088048    -0.56800
N637        N  0.88729151  0.44679290  0.91124659    -0.36200
N638        N  0.87124984  0.46868964  0.92919408    -0.56800
C639        C  0.84563007  0.41137759  0.95499270     0.27400
C640        C  0.84554610  0.44277149  0.95398708     0.27400
C641        C  0.88820761  0.43111337  0.90343883     0.27400
C642        C  0.88859501  0.46275061  0.90258148     0.27400
C643        C  0.86599003  0.39637305  0.94207482     0.36000
C644        C  0.88221819  0.40383759  0.92209042     0.36000
C645        C  0.86604423  0.47773207  0.93985210     0.36000
C646        C  0.88261233  0.48550307  0.91995642     0.36000
C647        C  0.82781137  0.40841459  0.96313930    -0.21500
C648        C  0.82774970  0.42822099  0.96250391    -0.21500
C649        C  0.89048031  0.43733615  0.88965927    -0.21500
C650        C  0.89068511  0.45730495  0.88911633    -0.21500
C651        C  0.87418239  0.38200364  0.94044364    -0.22500
C652        C  0.88446761  0.38672663  0.92776192    -0.22500
C653        C  0.87430614  0.50043525  0.93746028    -0.22500
C654        C  0.88489840  0.50539299  0.92486297    -0.22500
C655        C  0.85143783  0.39480475  0.95279143    -0.17900
C656        C  0.85143792  0.46510733  0.95076960    -0.17900
C657        C  0.88889699  0.48253740  0.90660779    -0.17900
C658        C  0.88851376  0.41215117  0.90851992    -0.17900
H659        H  0.81589006  0.39344874  0.96881712     0.15000
H660        H  0.81577374  0.43142068  0.96762453     0.15000
H661        H  0.89198616  0.42848732  0.88090768     0.15000
H662        H  0.89230343  0.46678007  0.87986420     0.15000
H663        H  0.87228673  0.36898834  0.94747555     0.13300
H664        H  0.89214987  0.37811192  0.92308985     0.13300
H665        H  0.87231278  0.51202485  0.94393916     0.13300
H666        H  0.89278424  0.52160885  0.91972849     0.13300
H667        H  0.87169835  0.44007153  0.94414300     0.26600
H668        H  0.88826913  0.44779776  0.92194315     0.26600
N669        N  0.70295918  0.50274801  0.99671383    -0.26900
N670        N  0.70859902  0.49286482  0.98722496    -0.34700
C671        C  0.69320608  0.48498211  0.97710545     0.01400
C672        C  0.67699735  0.49026529  0.98022046     0.07500
C673        C  0.68355920  0.50132342  0.99284579    -0.05600
H674        H  0.69398397  0.47613467  0.96813092     0.08100
H675        H  0.67527911  0.50843621  0.99856855     0.09300
Cu676      Cu  0.73784496  0.49219313  0.98731966     0.44200
Cu677      Cu  0.72341252  0.51900038  0.01367604     0.42000
Cu678      Cu  0.77945074  0.52365657  0.01237220     0.43900
N679        N  0.76933147  0.49622568  0.98673994    -0.34300
N680        N  0.78517717  0.50798685  0.99595929    -0.28500
C681        C  0.80384564  0.50757024  0.99257759    -0.04600
C682        C  0.79938864  0.49494297  0.98057959     0.07600
C683        C  0.77731941  0.48810929  0.97721731     0.01400
H684        H  0.81949209  0.51608664  0.99833106     0.09000
H685        H  0.76757149  0.47771960  0.96858144     0.08100
N686        N  0.76872450  0.53677523  0.02782753    -0.35700
N687        N  0.74876827  0.53509132  0.02840468    -0.27900
C688        C  0.74779119  0.54534150  0.03996573    -0.03100
C689        C  0.76802176  0.55377343  0.04697101     0.05500
C690        C  0.78086217  0.54807402  0.03898123     0.03600
H691        H  0.73336849  0.54645814  0.04305272     0.08700
H692        H  0.79779587  0.55176613  0.04111873     0.07500
N693        N  0.55813837  0.42954673  0.94616576    -0.36200
N694        N  0.51931970  0.40836791  0.92811249    -0.56800
N695        N  0.53989990  0.44815514  0.91031675    -0.36200
N696        N  0.57982325  0.46832466  0.92757768    -0.56800
C697        C  0.54745169  0.40809736  0.95098135     0.27400
C698        C  0.57984378  0.43971556  0.95045213     0.27400
C699        C  0.52287039  0.43306895  0.90214505     0.27400
C700        C  0.55468447  0.46541106  0.90215031     0.27400
C701        C  0.51106459  0.39341655  0.93864155     0.36000
C702        C  0.50170345  0.40291046  0.91965948     0.36000
C703        C  0.59522074  0.47612149  0.93785765     0.36000
C704        C  0.58534745  0.48617085  0.91932020     0.36000
C705        C  0.56242164  0.40474015  0.95860131    -0.21500
C706        C  0.58287690  0.42466814  0.95823776    -0.21500
C707        C  0.52674496  0.44100842  0.88867452    -0.21500
C708        C  0.54677337  0.46145769  0.88869255    -0.21500
C709        C  0.48811011  0.37847130  0.93693034    -0.22500
C710        C  0.48213691  0.38455135  0.92493048    -0.22500
C711        C  0.61057773  0.49899031  0.93614364    -0.22500
C712        C  0.60428169  0.50538525  0.92440757    -0.22500
C713        C  0.52443515  0.39158802  0.94892537    -0.17900
C714        C  0.59678255  0.46248475  0.94806314    -0.17900
C715        C  0.57486229  0.48488013  0.90657865    -0.17900
C716        C  0.50348279  0.41277546  0.90659596    -0.17900
H717        H  0.55902726  0.38947048  0.96381490     0.15000
H718        H  0.59825759  0.42769131  0.96314564     0.15000
H719        H  0.51625626  0.43290513  0.87972905     0.15000
H720        H  0.55470241  0.47210531  0.87978007     0.15000
H721        H  0.47696582  0.36434721  0.94347361     0.13300
H722        H  0.46540424  0.37604067  0.92042185     0.13300
H723        H  0.62504230  0.50984042  0.94254399     0.13300
H724        H  0.61296144  0.52215189  0.91996591     0.13300
H725        H  0.55058998  0.43742711  0.94138631     0.26600
H726        H  0.54029953  0.44774861  0.92102689     0.26600
N727        N  0.47996542  0.28148712  0.99497955    -0.26900
N728        N  0.49209657  0.27748124  0.98622088    -0.34700
C729        C  0.50117465  0.29393723  0.97673379     0.01400
C730        C  0.49440449  0.30916657  0.97952461     0.07500
C731        C  0.48110345  0.30083029  0.99129587    -0.05600
H732        H  0.51204743  0.29470452  0.96846606     0.08100
H733        H  0.47248003  0.30798287  0.99659208     0.09300
Cu734      Cu  0.49502652  0.24932849  0.98694093     0.44200
Cu735      Cu  0.46201723  0.25925836  0.01092311     0.42000
Cu736      Cu  0.46232534  0.20565285  0.01128834     0.43900
N737        N  0.49393915  0.21899034  0.98724724    -0.34300
N738        N  0.48176249  0.20252773  0.99605678    -0.28500
C739        C  0.48357851  0.18459792  0.99279481    -0.04600
C740        C  0.49734027  0.19004202  0.98124231     0.07600
C741        C  0.50374754  0.21209798  0.97815985     0.01400
H742        H  0.47479692  0.16851791  0.99807810     0.09000
H743        H  0.51448856  0.22241157  0.96979752     0.08100
N744        N  0.44526859  0.21428518  0.02537159    -0.35700
N745        N  0.44535104  0.23346231  0.02528369    -0.27900
C746        C  0.43308412  0.23357402  0.03601972    -0.03100
C747        C  0.42489627  0.21358986  0.04320360     0.05500
C748        C  0.43289623  0.20174584  0.03616885     0.03600
H749        H  0.43047655  0.24730884  0.03845032     0.08700
H750        H  0.43014009  0.18530995  0.03876647     0.07500
N751        N  0.98547918  0.67270936  0.84601150    -0.26900
N752        N  0.98798798  0.65943283  0.85467434    -0.34700
C753        C  0.00890274  0.67070133  0.86003758     0.01400
C754        C  0.02036761  0.69232759  0.85461592     0.07500
C755        C  0.00491769  0.69299324  0.84572479    -0.05600
H756        H  0.01513431  0.66370711  0.86757209     0.08100
H757        H  0.00762472  0.70704793  0.83940307     0.09300
Cu758      Cu  0.96299363  0.62664861  0.85921904     0.44200
Cu759      Cu  0.95521388  0.66178798  0.83523958     0.42000
Cu760      Cu  0.90883199  0.60361109  0.84340343     0.43900
N761        N  0.93672109  0.59402322  0.86271091    -0.34300
N762        N  0.91652195  0.58522869  0.85704654    -0.28500
C763        C  0.90338704  0.56383046  0.86159411    -0.04600
C764        C  0.91609382  0.55893703  0.87046282     0.07600
C765        C  0.93708501  0.57862808  0.87093571     0.01400
H766        H  0.88592737  0.55267883  0.85864490     0.09000
H767        H  0.95149480  0.58189275  0.87710306     0.08100
N768        N  0.90641775  0.62513278  0.82936064    -0.35700
N769        N  0.92291186  0.64585057  0.82626936    -0.27900
C770        C  0.91558931  0.65412781  0.81628783    -0.03100
C771        C  0.89343250  0.63787931  0.81287992     0.05500
C772        C  0.88832609  0.61979906  0.82146576     0.03600
H773        H  0.92602241  0.67046630  0.81151717     0.08700
H774        H  0.87265289  0.60366742  0.82183702     0.07500
N775        N  0.32362467  0.00644002  0.83915422    -0.26900
N776        N  0.33826503  0.00410926  0.84657842    -0.34700
C777        C  0.32801342  0.98340101  0.85209731     0.01400
C778        C  0.30558498  0.97163576  0.84795145     0.07500
C779        C  0.30344691  0.98694573  0.83971972    -0.05600
H780        H  0.33627671  0.97810990  0.85929185     0.08100
H781        H  0.28826180  0.98437897  0.83480013     0.09300
Cu782      Cu  0.37079881  0.02961072  0.85067564     0.44200
Cu783      Cu  0.33266486  0.03706000  0.82968737     0.42000
Cu784      Cu  0.39028235  0.08488862  0.83912300     0.43900
N785        N  0.40107621  0.05684144  0.85696236    -0.34300
N786        N  0.40853936  0.07775192  0.85299141    -0.28500
C787        C  0.42846131  0.09158043  0.85925282    -0.04600
C788        C  0.43368762  0.07855285  0.86759394     0.07600
C789        C  0.41579517  0.05663242  0.86583092     0.01400
H790        H  0.43842103  0.10962298  0.85763381     0.09000
H791        H  0.41330879  0.04152890  0.87079836     0.08100
N792        N  0.36916286  0.08609041  0.82440371    -0.35700
N793        N  0.34862756  0.06939089  0.82110569    -0.27900
C794        C  0.34054658  0.07642473  0.81088300    -0.03100
C795        C  0.35684311  0.09843249  0.80747421     0.05500
C796        C  0.37465768  0.10397367  0.81633173     0.03600
H797        H  0.32424676  0.06603223  0.80602335     0.08700
H798        H  0.39051976  0.11988989  0.81697317     0.07500
N799        N  0.20496387  0.85302751  0.87569121    -0.26900
N800        N  0.22066815  0.85599218  0.88469921    -0.34700
C801        C  0.23975211  0.87564159  0.88199136     0.01400
C802        C  0.23613458  0.88571444  0.87074570     0.07500
C803        C  0.21378757  0.87088903  0.86705165    -0.05600
H804        H  0.25526546  0.88201275  0.88777516     0.08100
H805        H  0.20481395  0.87246234  0.85840812     0.09300
Cu806      Cu  0.21707931  0.83352217  0.90020215     0.44200
Cu807      Cu  0.17268488  0.82413077  0.87484651     0.42000
Cu808      Cu  0.16454677  0.78242494  0.90063586     0.43900
N809        N  0.20947428  0.80845032  0.91477070    -0.34300
N810        N  0.18966827  0.78941639  0.91490108    -0.28500
C811        C  0.18916727  0.77637537  0.92535020    -0.04600
C812        C  0.20970694  0.78770952  0.93216173     0.07600
C813        C  0.22220422  0.80804187  0.92516843     0.01400
H814        H  0.17485566  0.75988006  0.92781557     0.09000
H815        H  0.23921674  0.82156019  0.92749572     0.08100
N816        N  0.14103236  0.77714723  0.88556461    -0.35700
N817        N  0.14341007  0.79221966  0.87627769    -0.27900
C818        C  0.12481438  0.78291907  0.86820156    -0.03100
C819        C  0.11027905  0.76085091  0.87252640     0.05500
C820        C  0.12115470  0.75793891  0.88358634     0.03600
H821        H  0.12230988  0.79137667  0.85961933     0.08700
H822        H  0.11501239  0.74296827  0.88987076     0.07500
N823        N  0.00099717  0.32842355  0.34403422    -0.26900
N824        N  0.99912512  0.34105667  0.35352812    -0.34700
C825        C  0.98001672  0.32840199  0.36074209     0.01400
C826        C  0.96906262  0.30657407  0.35562299     0.07500
C827        C  0.98278336  0.30726140  0.34489355    -0.05600
H828        H  0.97443424  0.33476989  0.36906326     0.08100
H829        H  0.98000654  0.29330059  0.33843800     0.09300
Cu830      Cu  0.02270941  0.37495174  0.35658769     0.44200
Cu831      Cu  0.02948218  0.34144899  0.33121737     0.42000
Cu832      Cu  0.07386757  0.40204780  0.33697761     0.43900
N833        N  0.04781446  0.40838053  0.35949169    -0.34300
N834        N  0.06691119  0.41875754  0.35244523    -0.28500
C835        C  0.07979264  0.43996878  0.35740684    -0.04600
C836        C  0.06824038  0.44295254  0.36818511     0.07600
C837        C  0.04794225  0.42250607  0.36903052     0.01400
H838        H  0.09660025  0.45206701  0.35374123     0.09000
H839        H  0.03411531  0.41798867  0.37606806     0.08100
N840        N  0.07620180  0.38040604  0.32283836    -0.35700
N841        N  0.06056876  0.35889477  0.32084294    -0.27900
C842        C  0.06819202  0.35018580  0.31134173    -0.03100
C843        C  0.08957462  0.36692163  0.30702793     0.05500
C844        C  0.09401710  0.38581893  0.31461651     0.03600
H845        H  0.05876522  0.33286629  0.30781469     0.08700
H846        H  0.10935194  0.40224163  0.31452237     0.07500
N847        N  0.66489533  0.98991085  0.34404993    -0.26900
N848        N  0.65113641  0.99351818  0.35157805    -0.34700
C849        C  0.66317490  0.01295188  0.35853065     0.01400
C850        C  0.68579600  0.02228806  0.35537027     0.07500
C851        C  0.68627551  0.00731320  0.34599315    -0.05600
H852        H  0.65584845  0.01971879  0.36543274     0.08100
H853        H  0.70108993  0.00866017  0.34125399     0.09300
Cu854      Cu  0.61672888  0.97146760  0.35332256     0.44200
Cu855      Cu  0.65289807  0.96044395  0.33230548     0.42000
Cu856      Cu  0.59161665  0.91816987  0.33686843     0.43900
N857        N  0.58385081  0.94607425  0.35715385    -0.34300
N858        N  0.57431213  0.92605694  0.35120456    -0.28500
C859        C  0.55366730  0.91269767  0.35676983    -0.04600
C860        C  0.55021098  0.92489486  0.36684170     0.07600
C861        C  0.56972368  0.94606233  0.36666591     0.01400
H862        H  0.54245735  0.89511835  0.35413298     0.09000
H863        H  0.57368635  0.96037802  0.37313181     0.08100
N864        N  0.61333354  0.91433637  0.32378691    -0.35700
N865        N  0.63516143  0.92921463  0.32217480    -0.27900
C866        C  0.64366192  0.92094789  0.31297677    -0.03100
C867        C  0.62643317  0.89992137  0.30848390     0.05500
C868        C  0.60748713  0.89635234  0.31567704     0.03600
H869        H  0.66110869  0.92983483  0.30964686     0.08700
H870        H  0.59063195  0.88164313  0.31529704     0.07500
N871        N  0.84629072  0.20680464  0.37857669    -0.26900
N872        N  0.84933179  0.22212373  0.38788398    -0.34700
C873        C  0.87002031  0.24051293  0.38626205     0.01400
C874        C  0.88075572  0.23691004  0.37536918     0.07500
C875        C  0.86510389  0.21529480  0.37071166    -0.05600
H876        H  0.87670356  0.25554941  0.39255113     0.08100
H877        H  0.86736222  0.20619033  0.36241972     0.09300
Cu878      Cu  0.82589297  0.21800299  0.40280643     0.44200
Cu879      Cu  0.81667159  0.17476867  0.37742161     0.42000
Cu880      Cu  0.77421413  0.16492077  0.40340549     0.43900
N881        N  0.80088163  0.20989171  0.41745046    -0.34300
N882        N  0.78177946  0.19013395  0.41766356    -0.28500
C883        C  0.76906594  0.18964241  0.42831292    -0.04600
C884        C  0.78072690  0.21012510  0.43513321     0.07600
C885        C  0.80085764  0.22256737  0.42798088     0.01400
H886        H  0.75256436  0.17540874  0.43088021     0.09000
H887        H  0.81447857  0.23954507  0.43024845     0.08100
N888        N  0.77004024  0.14146742  0.38861493    -0.35700
N889        N  0.78522258  0.14458009  0.37919648    -0.27900
C890        C  0.77680528  0.12566303  0.37147876    -0.03100
C891        C  0.75523939  0.10987819  0.37626007     0.05500
C892        C  0.75171935  0.12073761  0.38713851     0.03600
H893        H  0.78593579  0.12362498  0.36312082     0.08700
H894        H  0.73677605  0.11425113  0.39350117     0.07500
N895        N  0.30835287  0.31746667  0.34757739    -0.26900
N896        N  0.32551977  0.33184328  0.35533982    -0.34700
C897        C  0.33495028  0.32125240  0.36126936     0.01400
C898        C  0.32339095  0.29885857  0.35715284     0.07500
C899        C  0.30647334  0.29705964  0.34841564    -0.05600
H900        H  0.34899392  0.32940241  0.36837106     0.08100
H901        H  0.29387194  0.28220313  0.34296488     0.09300
Cu902      Cu  0.33559232  0.36516780  0.35855213     0.44200
Cu903      Cu  0.28924053  0.32780715  0.33650217     0.42000
Cu904      Cu  0.30600452  0.38801751  0.34345058     0.43900
N905        N  0.34302729  0.39736556  0.36310911    -0.34300
N906        N  0.33193138  0.40622414  0.35760715    -0.28500
C907        C  0.34023755  0.42712449  0.36282385    -0.04600
C908        C  0.35743077  0.43154259  0.37209830     0.07600
C909        C  0.35856539  0.41215153  0.37198664     0.01400
H910        H  0.33383934  0.43800322  0.36029168     0.09000
H911        H  0.36985450  0.40894691  0.37792221     0.08100
N912        N  0.28217690  0.36658032  0.32897787    -0.35700
N913        N  0.27602301  0.34532452  0.32648298    -0.27900
C914        C  0.26083534  0.33744335  0.31610537    -0.03100
C915        C  0.25726408  0.35449888  0.31182232     0.05500
C916        C  0.27114195  0.37265161  0.32026556     0.03600
H917        H  0.25358404  0.32073871  0.31172295     0.08700
H918        H  0.27324133  0.38925097  0.32009041     0.07500
N919        N  0.31812833  0.99361175  0.34501618    -0.26900
N920        N  0.33277432  0.99522012  0.35436553    -0.34700
C921        C  0.34056558  0.01441479  0.36149083     0.01400
C922        C  0.33072449  0.02598776  0.35636853     0.07500
C923        C  0.31637158  0.01210554  0.34594513    -0.05600
H924        H  0.35208777  0.01902796  0.37007640     0.08100
H925        H  0.30546323  0.01518240  0.33951872     0.09300
Cu926      Cu  0.34162030  0.97148414  0.35792945     0.44200
Cu927      Cu  0.30109451  0.96546419  0.33211085     0.42000
Cu928      Cu  0.31236162  0.91976254  0.34046446     0.43900
N929        N  0.34696991  0.94544933  0.36200177    -0.34300
N930        N  0.33591624  0.92586186  0.35557449    -0.28500
C931        C  0.34232290  0.91202082  0.36077572    -0.04600
C932        C  0.35821048  0.92356768  0.37103821     0.07600
C933        C  0.36066692  0.94471510  0.37150706     0.01400
H934        H  0.33539983  0.89469400  0.35757977     0.09000
H935        H  0.37151503  0.95856543  0.37829642     0.08100
N936        N  0.29060655  0.91813418  0.32526735    -0.35700
N937        N  0.28662486  0.93431298  0.32200587    -0.27900
C938        C  0.27178241  0.92704017  0.31146916    -0.03100
C939        C  0.26622371  0.90530078  0.30791180     0.05500
C940        C  0.27844526  0.90028790  0.31700427     0.03600
H941        H  0.26561135  0.93695502  0.30671964     0.08700
H942        H  0.27833595  0.88467879  0.31786904     0.07500
N943        N  0.34656487  0.20293563  0.38273517    -0.26900
N944        N  0.35853651  0.21807288  0.39234380    -0.34700
C945        C  0.35745497  0.23665346  0.39019598     0.01400
C946        C  0.34424167  0.23328278  0.37865951     0.07500
C947        C  0.33746196  0.21159312  0.37426137    -0.05600
H948        H  0.36565577  0.25150639  0.39667747     0.08100
H949        H  0.32714037  0.20295156  0.36535542     0.09300
Cu950      Cu  0.37659638  0.21393187  0.40804231     0.44200
Cu951      Cu  0.34399396  0.17154125  0.38130560     0.42000
Cu952      Cu  0.37593682  0.16260202  0.40800841     0.43900
N953        N  0.39386000  0.20659538  0.42267607    -0.34300
N954        N  0.39356750  0.18738021  0.42262471    -0.28500
C955        C  0.40596497  0.18718761  0.43326209    -0.04600
C956        C  0.41448463  0.20730613  0.44037990     0.07600
C957        C  0.40648174  0.21922375  0.43337665     0.01400
H958        H  0.40842413  0.17335414  0.43567554     0.09000
H959        H  0.40945651  0.23576283  0.43591618     0.08100
N960        N  0.35797079  0.13985596  0.39243828    -0.35700
N961        N  0.34626530  0.14263778  0.38268419    -0.27900
C962        C  0.33765772  0.12471314  0.37408428    -0.03100
C963        C  0.34442813  0.11008617  0.37865406     0.05500
C964        C  0.35719011  0.12033569  0.39033160     0.03600
H965        H  0.32798515  0.12296211  0.36490981     0.08700
H966        H  0.36564002  0.11423583  0.39680567     0.07500
N967        N  0.42524274  0.86187263  0.44725026    -0.36200
N968        N  0.40269016  0.87785463  0.42964836    -0.56800
N969        N  0.43717501  0.88873533  0.40840839    -0.36200
N970        N  0.46099953  0.87531084  0.42704832    -0.56800
C971        C  0.41010951  0.86166243  0.45618548     0.27400
C972        C  0.44048006  0.85971703  0.45475600     0.27400
C973        C  0.42613366  0.89838044  0.40304206     0.27400
C974        C  0.45738453  0.89791967  0.40190318     0.27400
C975        C  0.38619808  0.86636880  0.43908862     0.36000
C976        C  0.39255931  0.88054403  0.41852136     0.36000
C977        C  0.46638099  0.86353376  0.43572631     0.36000
C978        C  0.47359404  0.87922199  0.41556273     0.36000
C979        C  0.41599338  0.85964867  0.46955946    -0.21500
C980        C  0.43511347  0.85828505  0.46864599    -0.21500
C981        C  0.43932176  0.91364257  0.39285902    -0.21500
C982        C  0.45905265  0.91336081  0.39214654    -0.21500
C983        C  0.36556360  0.86186287  0.43393803    -0.22500
C984        C  0.36963550  0.87100030  0.42094180    -0.22500
C985        C  0.48257944  0.86008987  0.42975462    -0.22500
C986        C  0.48727608  0.87019322  0.41701948    -0.22500
C987        C  0.38972294  0.86039783  0.45240356    -0.17900
C988        C  0.45785170  0.85700970  0.44926970    -0.17900
C989        C  0.47389442  0.89198654  0.40411094    -0.17900
C990        C  0.40394429  0.89274710  0.40654218    -0.17900
H991        H  0.40699523  0.85850867  0.47895536     0.15000
H992        H  0.44380066  0.85600655  0.47719742     0.15000
H993        H  0.43512502  0.92384353  0.38653798     0.15000
H994        H  0.47298213  0.92331004  0.38517491     0.15000
H995        H  0.34923630  0.85284509  0.43895007     0.13300
H996        H  0.35713105  0.87054916  0.41401940     0.13300
H997        H  0.49042763  0.85145761  0.43416196     0.13300
H998        H  0.49937165  0.87081775  0.40966798     0.13300
H999        H  0.42334900  0.86008169  0.43661526     0.26600
H1000       H  0.43026894  0.87500973  0.41507109     0.26600
N1001       N  0.51562833  0.72126355  0.48946610    -0.26900
N1002       N  0.50437947  0.72579185  0.48032261    -0.34700
C1003       C  0.49261534  0.70787409  0.47202996     0.01400
C1004       C  0.49653898  0.69105154  0.47611172     0.07500
C1005       C  0.51141302  0.70022157  0.48714815    -0.05600
H1006       H  0.48207736  0.70727289  0.46359846     0.08100
H1007       H  0.51822014  0.69202121  0.49323951     0.09300
Cu1008     Cu  0.50476341  0.75573641  0.47986184     0.44200
Cu1009     Cu  0.53501904  0.74421553  0.50486220     0.42000
Cu1010     Cu  0.53704349  0.79891679  0.50490085     0.43900
N1011       N  0.50471343  0.78539860  0.48120631    -0.34300
N1012       N  0.51676289  0.80171848  0.49013759    -0.28500
C1013       C  0.51238103  0.81838382  0.48824194    -0.04600
C1014       C  0.49662517  0.81196785  0.47769349     0.07600
C1015       C  0.49223314  0.79099084  0.47352920     0.01400
H1016       H  0.51961715  0.83366490  0.49433635     0.09000
H1017       H  0.48082010  0.78050491  0.46544474     0.08100
N1018       N  0.55297610  0.78943983  0.51929762    -0.35700
N1019       N  0.55206870  0.76985049  0.51936838    -0.27900
C1020       C  0.56347149  0.76914035  0.53042113    -0.03100
C1021       C  0.57195474  0.78917265  0.53763371     0.05500
C1022       C  0.56501120  0.80163683  0.53028250     0.03600
H1023       H  0.56524522  0.75495897  0.53306800     0.08700
H1024       H  0.56817095  0.81824294  0.53282650     0.07500
N1025       N  0.13548340  0.56997442  0.44735427    -0.36200
N1026       N  0.11893633  0.59281533  0.43031455    -0.56800
N1027       N  0.10537897  0.55759959  0.40920645    -0.36200
N1028       N  0.11925110  0.53337753  0.42734477    -0.56800
C1029       C  0.13827571  0.58636852  0.45617767     0.27400
C1030       C  0.13851087  0.55508546  0.45462493     0.27400
C1031       C  0.09556999  0.56879139  0.40429132     0.27400
C1032       C  0.09545468  0.53725774  0.40280635     0.27400
C1033       C  0.13069395  0.60932593  0.43970318     0.36000
C1034       C  0.11440445  0.60254083  0.41970790     0.36000
C1035       C  0.13093865  0.52745871  0.43575582     0.36000
C1036       C  0.11421466  0.52045678  0.41589678     0.36000
C1037       C  0.14304253  0.58178097  0.46925078    -0.21500
C1038       C  0.14323429  0.56205544  0.46826462    -0.21500
C1039       C  0.07945772  0.55554417  0.39450460    -0.21500
C1040       C  0.07937250  0.53565315  0.39357880    -0.21500
C1041       C  0.13335662  0.62952199  0.43509991    -0.22500
C1042       C  0.12297338  0.62520467  0.42247028    -0.22500
C1043       C  0.13306703  0.51051418  0.42969248    -0.22500
C1044       C  0.12243617  0.50604777  0.41714063    -0.22500
C1045       C  0.13879174  0.60640502  0.45247858    -0.17900
C1046       C  0.13907487  0.53650843  0.44904564    -0.17900
C1047       C  0.10112804  0.52047473  0.40467865    -0.17900
C1048       C  0.10149260  0.59103264  0.40791701    -0.17900
H1049       H  0.14657254  0.59190042  0.47847114     0.15000
H1050       H  0.14692578  0.55402312  0.47657981     0.15000
H1051       H  0.06886607  0.55977664  0.38861432     0.15000
H1052       H  0.06869640  0.52161960  0.38684940     0.15000
H1053       H  0.14195006  0.64572779  0.44025532     0.13300
H1054       H  0.12192796  0.63739778  0.41602830     0.13300
H1055       H  0.14133248  0.50214820  0.43388879     0.13300
H1056       H  0.12092846  0.49359135  0.40977158     0.13300
H1057       H  0.13473969  0.57057727  0.43669843     0.26600
H1058       H  0.11958988  0.56440759  0.41547515     0.26600
N1059       N  0.27816043  0.80172555  0.49828040    -0.26900
N1060       N  0.27466869  0.78461476  0.49043901    -0.34700
C1061       C  0.29278929  0.79098190  0.48244715     0.01400
C1062       C  0.30868487  0.81325984  0.48531587     0.07500
C1063       C  0.29877479  0.81970565  0.49534410    -0.05600
H1064       H  0.29406843  0.78019373  0.47489267     0.08100
H1065       H  0.30612112  0.83603707  0.50028165     0.09300
Cu1066     Cu  0.24541627  0.75334380  0.49041695     0.44200
Cu1067     Cu  0.25417383  0.79801252  0.51269763     0.42000
Cu1068     Cu  0.20032224  0.74117806  0.51290703     0.43900
N1069       N  0.21516944  0.72295509  0.49007772    -0.34300
N1070       N  0.19794904  0.71808110  0.49822862    -0.28500
C1071       C  0.18074246  0.69710045  0.49519082    -0.04600
C1072       C  0.18770532  0.68836225  0.48468221     0.07600
C1073       C  0.20958554  0.70543906  0.48168787     0.01400
H1074       H  0.16449767  0.68878969  0.50031543     0.09000
H1075       H  0.22060797  0.70552519  0.47374833     0.08100
N1076       N  0.20880917  0.76732205  0.52684353    -0.35700
N1077       N  0.22771225  0.78739606  0.52670291    -0.27900
C1078       C  0.22743343  0.79961555  0.53740659    -0.03100
C1079       C  0.20753147  0.78668348  0.54462682     0.05500
C1080       C  0.19614392  0.76634272  0.53766790     0.03600
H1081       H  0.24093079  0.81657064  0.53985174     0.08700
H1082       H  0.17990969  0.75178277  0.54032128     0.07500
N1083       N  0.42632757  0.56732754  0.44576116    -0.36200
N1084       N  0.40443349  0.52638820  0.42891471    -0.56800
N1085       N  0.44208132  0.54795185  0.40961948    -0.36200
N1086       N  0.46540431  0.58758274  0.42769633    -0.56800
C1087       C  0.40896832  0.55327092  0.45408354     0.27400
C1088       C  0.44102172  0.58535252  0.45345376     0.27400
C1089       C  0.43071697  0.52681549  0.40429261     0.27400
C1090       C  0.46269439  0.55906266  0.40358857     0.27400
C1091       C  0.38702297  0.52190264  0.43737306     0.36000
C1092       C  0.39557642  0.51138594  0.41840740     0.36000
C1093       C  0.47091812  0.60572133  0.43572390     0.36000
C1094       C  0.47924456  0.59544892  0.41660891     0.36000
C1095       C  0.41271082  0.56242258  0.46723981    -0.21500
C1096       C  0.43293803  0.58267579  0.46683926    -0.21500
C1097       C  0.44423480  0.52452735  0.39466318    -0.21500
C1098       C  0.46440227  0.54486943  0.39421361    -0.21500
C1099       C  0.36710515  0.50376180  0.43230915    -0.22500
C1100       C  0.37254726  0.49702429  0.42035692    -0.22500
C1101       C  0.48859512  0.62509166  0.42982539    -0.22500
C1102       C  0.49394697  0.61856960  0.41776665    -0.22500
C1103       C  0.38892602  0.53345176  0.44984054    -0.17900
C1104       C  0.46051034  0.60499337  0.44844175    -0.17900
C1105       C  0.47944241  0.58206232  0.40564562    -0.17900
C1106       C  0.40799509  0.51005034  0.40721661    -0.17900
H1107       H  0.40176252  0.55543824  0.47613934     0.15000
H1108       H  0.44062158  0.59431967  0.47536758     0.15000
H1109       H  0.43991316  0.50982248  0.38846357     0.15000
H1110       H  0.47860396  0.54884065  0.38759621     0.15000
H1111       H  0.35034756  0.49616854  0.43671778     0.13300
H1112       H  0.36082001  0.48327086  0.41377378     0.13300
H1113       H  0.49674181  0.64218767  0.43372870     0.13300
H1114       H  0.50704593  0.62965006  0.41059984     0.13300
H1115       H  0.42648981  0.56620781  0.43509115     0.26600
H1116       H  0.43528649  0.55521858  0.41577028     0.26600
N1117       N  0.27467601  0.47936082  0.49308308    -0.26900
N1118       N  0.26985554  0.48930976  0.48319787    -0.34700
C1119       C  0.28782466  0.50064708  0.47490179     0.01400
C1120       C  0.30491998  0.49765104  0.47966117     0.07500
C1121       C  0.29598583  0.48394256  0.49122104    -0.05600
H1122       H  0.28832371  0.51028158  0.46597926     0.08100
H1123       H  0.30446203  0.47817810  0.49793973     0.09300
Cu1124     Cu  0.23939141  0.48769041  0.48148101     0.44200
Cu1125     Cu  0.25147122  0.46112311  0.50860573     0.42000
Cu1126     Cu  0.19698810  0.46029287  0.50731806     0.43900
N1127       N  0.20980697  0.48801355  0.48157487    -0.34300
N1128       N  0.19395678  0.47821719  0.49109238    -0.28500
C1129       C  0.17780210  0.48314786  0.48859074    -0.04600
C1130       C  0.18407643  0.49696224  0.47701760     0.07600
C1131       C  0.20433556  0.49938998  0.47281113     0.01400
H1132       H  0.16307272  0.47780318  0.49500430     0.09000
H1133       H  0.21462881  0.50892910  0.46409933     0.08100
N1134       N  0.20592205  0.44494933  0.52242195    -0.35700
N1135       N  0.22517001  0.44512703  0.52280114    -0.27900
C1136       C  0.22529680  0.43394376  0.53410833    -0.03100
C1137       C  0.20533007  0.42650524  0.54121438     0.05500
C1138       C  0.19343806  0.43373959  0.53352658     0.03600
H1139       H  0.23916267  0.43182307  0.53707433     0.08700
H1140       H  0.17701849  0.43127644  0.53588693     0.07500
N1141       N  0.66480624  0.66765044  0.33854659    -0.26900
N1142       N  0.65186358  0.65242519  0.34783640    -0.34700
C1143       C  0.66318535  0.64358153  0.35356630     0.01400
C1144       C  0.68449063  0.65359569  0.34770947     0.07500
C1145       C  0.68493733  0.66887921  0.33818513    -0.05600
H1146       H  0.65648572  0.63117440  0.36175154     0.08100
H1147       H  0.69876137  0.68005802  0.33148117     0.09300
Cu1148     Cu  0.61971449  0.64447167  0.35322574     0.44200
Cu1149     Cu  0.65391906  0.68615260  0.32737264     0.42000
Cu1150     Cu  0.59730666  0.67472544  0.33756090     0.43900
N1151       N  0.58835687  0.63912845  0.35827884    -0.34300
N1152       N  0.57976836  0.65026373  0.35247271    -0.28500
C1153       C  0.55943176  0.64340167  0.35813750    -0.04600
C1154       C  0.55507552  0.62713510  0.36804713     0.07600
C1155       C  0.57388651  0.62495966  0.36781425     0.01400
H1156       H  0.54902554  0.65031196  0.35551285     0.09000
H1157       H  0.57694747  0.61394194  0.37413376     0.08100
N1158       N  0.61790174  0.69810560  0.32279829    -0.35700
N1159       N  0.63798474  0.70214870  0.31886308    -0.27900
C1160       C  0.64586053  0.71792366  0.30882881    -0.03100
C1161       C  0.62997031  0.72408501  0.30628172     0.05500
C1162       C  0.61260820  0.71119921  0.31549582     0.03600
H1163       H  0.66187758  0.72419092  0.30364747     0.08700
H1164       H  0.59719846  0.71129913  0.31703116     0.07500
N1165       N  0.00460949  0.68621929  0.35081563    -0.26900
N1166       N  0.00186119  0.67147610  0.36043997    -0.34700
C1167       C  0.98282249  0.66528956  0.36747469     0.01400
C1168       C  0.97292989  0.67659287  0.36206652     0.07500
C1169       C  0.98712763  0.68963151  0.35142739    -0.05600
H1170       H  0.97633478  0.65287204  0.37565733     0.08100
H1171       H  0.98491111  0.70072511  0.34462831     0.09300
Cu1172     Cu  0.02336194  0.65957817  0.36378834     0.44200
Cu1173     Cu  0.03206629  0.70065699  0.33737686     0.42000
Cu1174     Cu  0.07280549  0.68255833  0.34302333     0.43900
N1175       N  0.04797078  0.65154878  0.36666235    -0.34300
N1176       N  0.06652123  0.66025408  0.35913758    -0.28500
C1177       C  0.07955568  0.65251836  0.36387257    -0.04600
C1178       C  0.06867817  0.63820306  0.37497794     0.07600
C1179       C  0.04857551  0.63798153  0.37633429     0.01400
H1180       H  0.09591310  0.65729564  0.35964566     0.09000
H1181       H  0.03513983  0.62858890  0.38367717     0.08100
N1182       N  0.07600279  0.70534276  0.32791652    -0.35700
N1183       N  0.06150122  0.71209357  0.32589572    -0.27900
C1184       C  0.06920117  0.72733083  0.31558606    -0.03100
C1185       C  0.08948674  0.73027174  0.31080686     0.05500
C1186       C  0.09320908  0.71603970  0.31894923     0.03600
H1187       H  0.06057462  0.73559455  0.31183318     0.08700
H1188       H  0.10765868  0.71397454  0.31872582     0.07500
N1189       N  0.78434879  0.63866353  0.37534616    -0.26900
N1190       N  0.76918403  0.62702214  0.38501136    -0.34700
C1191       C  0.74982401  0.62611411  0.38191921     0.01400
C1192       C  0.75274442  0.63767513  0.36970753     0.07500
C1193       C  0.77494865  0.64560395  0.36588548    -0.05600
H1194       H  0.73483010  0.61793229  0.38829842     0.08100
H1195       H  0.78354874  0.65542121  0.35681175     0.09300
Cu1196     Cu  0.77448864  0.61269882  0.40230375     0.44200
Cu1197     Cu  0.81695771  0.64417799  0.37539493     0.42000
Cu1198     Cu  0.82793299  0.61861061  0.40512979     0.43900
N1199       N  0.78312432  0.59972855  0.41887277    -0.34300
N1200       N  0.80320466  0.60194801  0.41988075    -0.28500
C1201       C  0.80403502  0.59174612  0.43147625    -0.04600
C1202       C  0.78340058  0.58264343  0.43809638     0.07600
C1203       C  0.77053658  0.58803363  0.42982656     0.01400
H1204       H  0.81851861  0.59088841  0.43475985     0.09000
H1205       H  0.75325558  0.58359273  0.43154662     0.08100
N1206       N  0.85101224  0.63643891  0.38972962    -0.35700
N1207       N  0.84752778  0.64592894  0.37894881    -0.27900
C1208       C  0.86664919  0.65653654  0.37138652    -0.03100
C1209       C  0.88293344  0.65358381  0.37778664     0.05500
C1210       C  0.87220810  0.64066153  0.38933604     0.03600
H1211       H  0.86855475  0.66604193  0.36211728     0.08700
H1212       H  0.87916754  0.63455969  0.39697070     0.07500
O1213       O  0.16536390  0.37659074  0.23345532    -0.72500
O1214       O  0.20486664  0.37433484  0.26281448    -0.73500
O1215       O  0.20512181  0.37419419  0.23364316    -0.62100
O1216       O  0.16523648  0.37690054  0.26256623    -0.70600
O1217       O  0.14419813  0.33957487  0.26291967    -0.70100
O1218       O  0.18442205  0.33684232  0.23337057    -0.61400
O1219       O  0.18423197  0.33699153  0.26296046    -0.73900
O1220       O  0.14424312  0.33927007  0.23347585    -0.72700
Cu1221     Cu  0.18585640  0.37671639  0.24810476     1.04600
Cu1222     Cu  0.16353209  0.33681197  0.24817476     1.04300
C1223       C  0.14835678  0.35837574  0.22890828     0.93700
C1224       C  0.20089331  0.35543575  0.26761306     0.92800
C1225       C  0.20135144  0.35531139  0.22893029     0.84900
C1226       C  0.14828133  0.35879906  0.26728539     0.91200
O1227       O  0.65297436  0.80507848  0.26161405    -0.72500
O1228       O  0.65309817  0.84818225  0.23327620    -0.73500
O1229       O  0.65220961  0.84614653  0.26280308    -0.62100
O1230       O  0.65352716  0.80682450  0.23219174    -0.70600
O1231       O  0.61611414  0.78736616  0.23197713    -0.70100
O1232       O  0.61481206  0.82614095  0.26219813    -0.61400
O1233       O  0.61569688  0.82823924  0.23307021    -0.73900
O1234       O  0.61556251  0.78554183  0.26115814    -0.72700
Cu1235     Cu  0.65430454  0.82726952  0.24747753     1.04600
Cu1236     Cu  0.61433012  0.80617249  0.24708491     1.04300
C1237       C  0.63416025  0.78839129  0.26582205     0.93700
C1238       C  0.63430416  0.84510798  0.22877982     0.92800
C1239       C  0.63311530  0.84237308  0.26725347     0.84900
C1240       C  0.63489003  0.79065974  0.22734845     0.91200
N1241       N  0.00774762  0.32393381  0.14527025    -0.26900
N1242       N  0.00637630  0.33673566  0.13568294    -0.34700
C1243       C  0.98804810  0.32401864  0.12785172     0.01400
C1244       C  0.97701062  0.30208656  0.13277296     0.07500
C1245       C  0.99003879  0.30264552  0.14385804    -0.05600
H1246       H  0.98265536  0.33051206  0.11950268     0.08100
H1247       H  0.98688594  0.28869650  0.15044221     0.09300
Cu1248     Cu  0.02828419  0.37129775  0.13412212     0.44200
Cu1249     Cu  0.03380226  0.33685925  0.15975936     0.42000
Cu1250     Cu  0.07547900  0.39815542  0.15701173     0.43900
N1251       N  0.05135541  0.40572989  0.13382973    -0.34300
N1252       N  0.06911338  0.41582732  0.14205834    -0.28500
C1253       C  0.08137937  0.43791840  0.13873014    -0.04600
C1254       C  0.07071281  0.44189574  0.12789523     0.07600
C1255       C  0.05167588  0.42103720  0.12516278     0.01400
H1256       H  0.09693043  0.45009351  0.14379736     0.09000
H1257       H  0.03935967  0.41706209  0.11709504     0.08100
N1258       N  0.07762793  0.37630357  0.17088366    -0.35700
N1259       N  0.06261899  0.35446994  0.17200877    -0.27900
C1260       C  0.06943921  0.34567525  0.18190701    -0.03100
C1261       C  0.08988703  0.36269881  0.18730900     0.05500
C1262       C  0.09438192  0.38186842  0.17998637     0.03600
H1263       H  0.05994723  0.32810030  0.18483195     0.08700
H1264       H  0.10896151  0.39871632  0.18097156     0.07500
N1265       N  0.66828345  0.99345087  0.15139880    -0.26900
N1266       N  0.65619058  0.99474144  0.14127698    -0.34700
C1267       C  0.66834430  0.01475472  0.13492677     0.01400
C1268       C  0.68920848  0.02690274  0.14128712     0.07500
C1269       C  0.68869821  0.01276991  0.15164216    -0.05600
H1270       H  0.66238000  0.01999765  0.12621752     0.08100
H1271       H  0.70197301  0.01643953  0.15896712     0.09300
Cu1272     Cu  0.62340856  0.96991730  0.13637897     0.44200
Cu1273     Cu  0.65547755  0.96521026  0.16430782     0.42000
Cu1274     Cu  0.59669730  0.91970099  0.15643135     0.43900
N1275       N  0.59015805  0.94456469  0.13321491    -0.34300
N1276       N  0.58000003  0.92581678  0.14057405    -0.28500
C1277       C  0.55857085  0.91282123  0.13601641    -0.04600
C1278       C  0.55508938  0.92398344  0.12523669     0.07600
C1279       C  0.57558865  0.94410631  0.12384997     0.01400
H1280       H  0.54641384  0.89660193  0.14037889     0.09000
H1281       H  0.57979084  0.95737606  0.11642601     0.08100
N1282       N  0.61721891  0.91791749  0.17165190    -0.35700
N1283       N  0.63813393  0.93416283  0.17459895    -0.27900
C1284       C  0.64617161  0.92698222  0.18479745    -0.03100
C1285       C  0.62957734  0.90518855  0.18853592     0.05500
C1286       C  0.61153095  0.90008554  0.17987298     0.03600
H1287       H  0.66293110  0.93695111  0.18915776     0.08700
H1288       H  0.59552577  0.88432962  0.17925648     0.07500
N1289       N  0.85301110  0.20515996  0.11111723    -0.26900
N1290       N  0.85565991  0.22006093  0.10161292    -0.34700
C1291       C  0.87682406  0.23800622  0.10238224     0.01400
C1292       C  0.88825473  0.23438929  0.11284711     0.07500
C1293       C  0.87250625  0.21339357  0.11820933    -0.05600
H1294       H  0.88314767  0.25287922  0.09599018     0.08100
H1295       H  0.87500696  0.20472220  0.12666484     0.09300
Cu1296     Cu  0.83071962  0.21613466  0.08787699     0.44200
Cu1297     Cu  0.82275127  0.17447127  0.11420575     0.42000
Cu1298     Cu  0.77699532  0.16605893  0.09123438     0.43900
N1299       N  0.80402246  0.20815281  0.07452141    -0.34300
N1300       N  0.78407698  0.18941288  0.07568529    -0.28500
C1301       C  0.77060495  0.18849149  0.06534310    -0.04600
C1302       C  0.78267137  0.20766019  0.05729616     0.07600
C1303       C  0.80377808  0.21974750  0.06344595     0.01400
H1304       H  0.75337049  0.17483468  0.06377297     0.09000
H1305       H  0.81803446  0.23564940  0.06001656     0.08100
N1306       N  0.77353292  0.14387752  0.10678648    -0.35700
N1307       N  0.78993626  0.14627427  0.11497635    -0.27900
C1308       C  0.78148694  0.12833535  0.12356565    -0.03100
C1309       C  0.75864143  0.11413672  0.12068326     0.05500
C1310       C  0.75434833  0.12464594  0.10999467     0.03600
H1311       H  0.79114109  0.12610765  0.13151009     0.08700
H1312       H  0.73840095  0.11863656  0.10477651     0.07500
N1313       N  0.31279893  0.32047970  0.15011831    -0.26900
N1314       N  0.32838361  0.33377626  0.14107801    -0.34700
C1315       C  0.33519897  0.32177841  0.13393226     0.01400
C1316       C  0.32346272  0.29976236  0.13862975     0.07500
C1317       C  0.30950996  0.29953782  0.14901602    -0.05600
H1318       H  0.34796526  0.32871676  0.12594206     0.08100
H1319       H  0.29751592  0.28514010  0.15507805     0.09300
Cu1320     Cu  0.34014329  0.36766412  0.13831922     0.44200
Cu1321     Cu  0.29652661  0.33197270  0.16296901     0.42000
Cu1322     Cu  0.31660101  0.39266332  0.15865430     0.43900
N1323       N  0.34927632  0.40096754  0.13597613    -0.34300
N1324       N  0.34041134  0.41042154  0.14341670    -0.28500
C1325       C  0.34843933  0.43160225  0.13882499    -0.04600
C1326       C  0.36310524  0.43562454  0.12791919     0.07600
C1327       C  0.36325355  0.41579374  0.12650619     0.01400
H1328       H  0.34367980  0.44302076  0.14302857     0.09000
H1329       H  0.37208306  0.41201580  0.11875952     0.08100
N1330       N  0.29166106  0.37106687  0.17240165    -0.35700
N1331       N  0.28402355  0.34927270  0.17392992    -0.27900
C1332       C  0.26744211  0.34081237  0.18349412    -0.03100
C1333       C  0.26467986  0.35814002  0.18829823     0.05500
C1334       C  0.28029936  0.37698689  0.18093370     0.03600
H1335       H  0.25824720  0.32337399  0.18680916     0.08700
H1336       H  0.28296579  0.39379652  0.18143783     0.07500
N1337       N  0.30601361  0.98734342  0.14496544    -0.26900
N1338       N  0.31957362  0.98905703  0.13481882    -0.34700
C1339       C  0.32676851  0.00849163  0.12808416     0.01400
C1340       C  0.31721824  0.01965823  0.13415739     0.07500
C1341       C  0.30428794  0.00586663  0.14496360    -0.05600
H1342       H  0.33845638  0.01417430  0.11950755     0.08100
H1343       H  0.29412561  0.00886936  0.15212803     0.09300
Cu1344     Cu  0.32866749  0.96572636  0.13032736     0.44200
Cu1345     Cu  0.29063558  0.95949339  0.15788994     0.42000
Cu1346     Cu  0.30791450  0.91777895  0.15205581     0.43900
N1347       N  0.33870954  0.94257632  0.12819197    -0.34300
N1348       N  0.33135965  0.92485729  0.13633391    -0.28500
C1349       C  0.34152829  0.91348545  0.13267847    -0.04600
C1350       C  0.35599184  0.92459460  0.12163538     0.07600
C1351       C  0.35366772  0.94301426  0.11914680     0.01400
H1352       H  0.33880119  0.89849126  0.13790133     0.09000
H1353       H  0.36210165  0.95579853  0.11128239     0.08100
N1354       N  0.28435589  0.91464387  0.16678539    -0.35700
N1355       N  0.27808044  0.92953702  0.16874487    -0.27900
C1356       C  0.26273470  0.92228669  0.17897307    -0.03100
C1357       C  0.25909463  0.90182622  0.18377173     0.05500
C1358       C  0.27317186  0.89758034  0.17580143     0.03600
H1359       H  0.25529765  0.93163914  0.18283281     0.08700
H1360       H  0.27511244  0.88307901  0.17645324     0.07500
N1361       N  0.34645429  0.20332111  0.11486263    -0.26900
N1362       N  0.35672069  0.21766450  0.10460195    -0.34700
C1363       C  0.35383338  0.23526478  0.10610624     0.01400
C1364       C  0.34117696  0.23207532  0.11789767     0.07500
C1365       C  0.33679383  0.21155116  0.12319079    -0.05600
H1366       H  0.36083565  0.24955496  0.09916736     0.08100
H1367       H  0.32702918  0.20296215  0.13227424     0.09300
Cu1368     Cu  0.37457680  0.21371216  0.08876989     0.44200
Cu1369     Cu  0.34559716  0.17298917  0.11688151     0.42000
Cu1370     Cu  0.37463909  0.16281825  0.08895077     0.43900
N1371       N  0.39123473  0.20624215  0.07386545    -0.34300
N1372       N  0.39121536  0.18717173  0.07397761    -0.28500
C1373       C  0.40311525  0.18679255  0.06311857    -0.04600
C1374       C  0.41102405  0.20664817  0.05580911     0.07600
C1375       C  0.40319106  0.21861042  0.06291262     0.01400
H1376       H  0.40576145  0.17306633  0.06073799     0.09000
H1377       H  0.40592848  0.23504034  0.06032119     0.08100
N1378       N  0.35651105  0.13995657  0.10440201    -0.35700
N1379       N  0.34612044  0.14340267  0.11470071    -0.27900
C1380       C  0.33576766  0.12467988  0.12259494    -0.03100
C1381       C  0.33979101  0.10868814  0.11690040     0.05500
C1382       C  0.35302414  0.11909209  0.10540397     0.03600
H1383       H  0.32557043  0.12272506  0.13154534     0.08700
H1384       H  0.35977496  0.11209074  0.09823558     0.07500
N1385       N  0.27923698  0.79679979  0.99587564    -0.26900
N1386       N  0.27144060  0.78314004  0.00661188    -0.34700
C1387       C  0.28676120  0.79146527  0.01677986     0.01400
C1388       C  0.30539744  0.81147445  0.01234573     0.07500
C1389       C  0.30001099  0.81435907  0.99895990    -0.05600
H1390       H  0.28465630  0.78309148  0.02656570     0.08100
H1391       H  0.31025597  0.82816899  0.99200401     0.09300
Cu1392     Cu  0.24096622  0.75308102  0.00688833     0.44200
Cu1393     Cu  0.26003337  0.78964240  0.97797052     0.42000
Cu1394     Cu  0.20424188  0.73468774  0.97788510     0.43900
N1395       N  0.21160123  0.72201228  0.00613319    -0.34300
N1396       N  0.19769954  0.71443179  0.99548813    -0.28500
C1397       C  0.18043614  0.69338406  0.99849853    -0.04600
C1398       C  0.18376841  0.68765925  0.01172949     0.07600
C1399       C  0.20378271  0.70635329  0.01610637     0.01400
H1400       H  0.16637061  0.68324785  0.99167596     0.09000
H1401       H  0.21235367  0.70844135  0.02581703     0.08100
N1402       N  0.21561258  0.75991363  0.96262221    -0.35700
N1403       N  0.23543516  0.77913406  0.96264789    -0.27900
C1404       C  0.23651744  0.79161867  0.95169127    -0.03100
C1405       C  0.21648489  0.77990458  0.94442101     0.05500
C1406       C  0.20367049  0.75986371  0.95161292     0.03600
H1407       H  0.25063507  0.80834340  0.94944208     0.08700
H1408       H  0.18664449  0.74644192  0.94922393     0.07500
N1409       N  0.11626226  0.59169643  0.06735565    -0.36200
N1410       N  0.10020618  0.55493182  0.08750333    -0.56800
N1411       N  0.11914074  0.53444334  0.07049587    -0.36200
N1412       N  0.13240723  0.56971331  0.04933642    -0.56800
C1413       C  0.10360919  0.59646126  0.07571049     0.27400
C1414       C  0.12067060  0.60424055  0.05575686     0.27400
C1415       C  0.10743359  0.51763575  0.07974601     0.27400
C1416       C  0.12472899  0.52559806  0.05986512     0.27400
C1417       C  0.09662013  0.56937219  0.09485303     0.36000
C1418       C  0.09755509  0.53863426  0.09636489     0.36000
C1419       C  0.14201302  0.59007773  0.04300636     0.36000
C1420       C  0.14347064  0.55963911  0.04467799     0.36000
C1421       C  0.09980186  0.61211542  0.06930953    -0.21500
C1422       C  0.11051963  0.61697637  0.05671201    -0.21500
C1423       C  0.10566546  0.49792023  0.07493066    -0.21500
C1424       C  0.11657201  0.50294382  0.06240268    -0.21500
C1425       C  0.09130321  0.56200770  0.10839930    -0.22500
C1426       C  0.09183610  0.54249302  0.10934277    -0.22500
C1427       C  0.15897949  0.59275502  0.03416321    -0.22500
C1428       C  0.15985812  0.57347258  0.03519230    -0.22500
C1429       C  0.09697656  0.58849396  0.08938032    -0.17900
C1430       C  0.13551456  0.60619189  0.04502674    -0.17900
C1431       C  0.13861541  0.53785140  0.04852236    -0.17900
C1432       C  0.09939259  0.51986220  0.09275222    -0.17900
H1433       H  0.09062964  0.61961879  0.07340911     0.15000
H1434       H  0.11125832  0.62897176  0.04925287     0.15000
H1435       H  0.09757070  0.48162963  0.07998460     0.15000
H1436       H  0.11856647  0.49129868  0.05598222     0.15000
H1437       H  0.08733464  0.56980600  0.11672623     0.13300
H1438       H  0.08843150  0.53233299  0.11852788     0.13300
H1439       H  0.16986771  0.60720320  0.02777824     0.13300
H1440       H  0.17149315  0.57017934  0.02971604     0.13300
H1441       H  0.12406113  0.58298012  0.07025124     0.26600
H1442       H  0.12540484  0.55146628  0.07207315     0.26600
N1443       N  0.50137844  0.71127310  0.99891155    -0.26900
N1444       N  0.49345227  0.71701038  0.00951630    -0.34700
C1445       C  0.48535795  0.70061513  0.01902359     0.01400
C1446       C  0.48816969  0.68339244  0.01428898     0.07500
C1447       C  0.49836202  0.69069943  0.00141064    -0.05600
H1448       H  0.47791524  0.70127229  0.02869744     0.08100
H1449       H  0.50381241  0.68209185  0.99457083     0.09300
Cu1450     Cu  0.49430990  0.74695817  0.01092466     0.44200
Cu1451     Cu  0.51694224  0.73348726  0.98238533     0.42000
Cu1452     Cu  0.52107657  0.78945391  0.98500902     0.43900
N1453       N  0.49553928  0.77713146  0.01168024    -0.34300
N1454       N  0.50527869  0.79313515  0.00226703    -0.28500
C1455       C  0.50223191  0.81020606  0.00580023    -0.04600
C1456       C  0.49001704  0.80453056  0.01806237     0.07600
C1457       C  0.48605971  0.78336748  0.02137787     0.01400
H1458       H  0.50825315  0.82546366  0.99981971     0.09000
H1459       H  0.47624238  0.77270224  0.02989403     0.08100
N1460       N  0.53530464  0.78008128  0.96934797    -0.35700
N1461       N  0.53374115  0.76021449  0.96840719    -0.27900
C1462       C  0.54544067  0.76035240  0.95726593    -0.03100
C1463       C  0.55482478  0.78119303  0.95089749     0.05500
C1464       C  0.54801829  0.79325272  0.95881662     0.03600
H1465       H  0.54721601  0.74634967  0.95414395     0.08700
H1466       H  0.55219832  0.81044715  0.95715563     0.07500
N1467       N  0.40387546  0.87865083  0.06662104    -0.36200
N1468       N  0.44183244  0.89491275  0.08567446    -0.56800
N1469       N  0.46003973  0.87388247  0.06843359    -0.36200
N1470       N  0.42339177  0.85994099  0.04842295    -0.56800
C1471       C  0.40017494  0.89214673  0.07490545     0.27400
C1472       C  0.39057431  0.87387082  0.05535065     0.27400
C1473       C  0.47779761  0.88625691  0.07695427     0.27400
C1474       C  0.46775359  0.86736982  0.05765468     0.27400
C1475       C  0.42799251  0.89884782  0.09344369     0.36000
C1476       C  0.45837388  0.89707895  0.09415072     0.36000
C1477       C  0.40263122  0.85062476  0.04267084     0.36000
C1478       C  0.43243877  0.84795230  0.04371188     0.36000
C1479       C  0.38437586  0.89605761  0.06879684    -0.21500
C1480       C  0.37841184  0.88462661  0.05643459    -0.21500
C1481       C  0.49700370  0.88760726  0.07150259    -0.21500
C1482       C  0.49066331  0.87568031  0.05933178    -0.21500
C1483       C  0.43596561  0.90387438  0.10687730    -0.22500
C1484       C  0.45525251  0.90278398  0.10731818    -0.22500
C1485       C  0.39864299  0.83286415  0.03411833    -0.22500
C1486       C  0.41754760  0.83120094  0.03476304    -0.22500
C1487       C  0.40898587  0.89917111  0.08838252    -0.17900
C1488       C  0.38742384  0.85823253  0.04485937    -0.17900
C1489       C  0.45428058  0.85243478  0.04702417    -0.17900
C1490       C  0.47679965  0.89499258  0.08997132    -0.17900
H1491       H  0.37744899  0.90571910  0.07295116     0.15000
H1492       H  0.36602190  0.88378496  0.04924899     0.15000
H1493       H  0.51378542  0.89600527  0.07594220     0.15000
H1494       H  0.50160462  0.87308946  0.05259316     0.15000
H1495       H  0.42874748  0.90806594  0.11543599     0.13300
H1496       H  0.46578440  0.90586669  0.11628887     0.13300
H1497       H  0.38360057  0.82201893  0.02815831     0.13300
H1498       H  0.41995012  0.81892318  0.02935466     0.13300
H1499       H  0.41241677  0.87059135  0.06942443     0.26600
H1500       H  0.44315495  0.86771958  0.07069267     0.26600
N1501       N  0.42494776  0.56256287  0.04811427    -0.36200
N1502       N  0.40288913  0.52535252  0.06793342    -0.56800
N1503       N  0.44255085  0.54705751  0.08538730    -0.36200
N1504       N  0.46346778  0.58525351  0.06643740    -0.56800
C1505       C  0.40323523  0.55188977  0.04375323     0.27400
C1506       C  0.43527623  0.58392986  0.04312631     0.27400
C1507       C  0.42782434  0.53054046  0.09397093     0.27400
C1508       C  0.46000649  0.56238599  0.09317989     0.27400
C1509       C  0.38783953  0.51651337  0.05747602     0.36000
C1510       C  0.39700876  0.50842699  0.07706900     0.36000
C1511       C  0.47168235  0.59952249  0.05557373     0.36000
C1512       C  0.48113530  0.59118785  0.07494777     0.36000
C1513       C  0.39986082  0.56651615  0.03576310    -0.21500
C1514       C  0.42003316  0.58670217  0.03538638    -0.21500
C1515       C  0.43620217  0.53523532  0.10733011    -0.21500
C1516       C  0.45649821  0.55535963  0.10683825    -0.21500
C1517       C  0.37235781  0.49387979  0.05996746    -0.22500
C1518       C  0.37815297  0.48876185  0.07239358    -0.22500
C1519       C  0.49469375  0.61444813  0.05711971    -0.22500
C1520       C  0.50069391  0.60917480  0.06940846    -0.22500
C1521       C  0.38642250  0.52916898  0.04650665    -0.17900
C1522       C  0.45817960  0.60092641  0.04517547    -0.17900
C1523       C  0.47946636  0.58206099  0.08822753    -0.17900
C1524       C  0.40748162  0.51087464  0.09000068    -0.17900
H1525       H  0.38436432  0.56314525  0.03085107     0.15000
H1526       H  0.42298778  0.60178882  0.03013913     0.15000
H1527       H  0.42848947  0.52521361  0.11649540     0.15000
H1528       H  0.46744073  0.56381696  0.11556162     0.15000
H1529       H  0.35806986  0.48238436  0.05363987     0.13300
H1530       H  0.36927671  0.47252041  0.07750191     0.13300
H1531       H  0.50585093  0.62810613  0.05029295     0.13300
H1532       H  0.51743555  0.61794104  0.07390940     0.13300
H1533       H  0.43267415  0.55508027  0.05317651     0.26600
H1534       H  0.44188972  0.54675130  0.07468084     0.26600
N1535       N  0.27824411  0.48969091  0.99949958    -0.26900
N1536       N  0.27313989  0.49937773  0.00939430    -0.34700
C1537       C  0.28917340  0.50718756  0.01913249     0.01400
C1538       C  0.30523559  0.50198774  0.01534780     0.07500
C1539       C  0.29790303  0.49110476  0.00270266    -0.05600
H1540       H  0.28893747  0.51592870  0.02831415     0.08100
H1541       H  0.30580716  0.48404530  0.99654791     0.09300
Cu1542     Cu  0.24389174  0.50015817  0.00990727     0.44200
Cu1543     Cu  0.25641707  0.47379584  0.98306720     0.42000
Cu1544     Cu  0.20201848  0.47336701  0.98372166     0.43900
N1545       N  0.21375133  0.49922716  0.01026667    -0.34300
N1546       N  0.19799183  0.48961745  0.00069395    -0.28500
C1547       C  0.18053447  0.49211437  0.00423702    -0.04600
C1548       C  0.18569920  0.50386866  0.01668682     0.07600
C1549       C  0.20694138  0.50799658  0.02009433     0.01400
H1550       H  0.16516374  0.48549501  0.99828958     0.09000
H1551       H  0.21702621  0.51701397  0.02899355     0.08100
N1552       N  0.21090827  0.45703902  0.96910675    -0.35700
N1553       N  0.23014788  0.45717950  0.96901267    -0.27900
C1554       C  0.22972551  0.44414280  0.95859333    -0.03100
C1555       C  0.20935992  0.43538249  0.95176091     0.05500
C1556       C  0.19785489  0.44392241  0.95866267     0.03600
H1557       H  0.24321882  0.44109010  0.95628129     0.08700
H1558       H  0.18106499  0.44055966  0.95641663     0.07500
N1559       N  0.66917241  0.67770486  0.14907070    -0.26900
N1560       N  0.65553227  0.66229731  0.14007304    -0.34700
C1561       C  0.66646178  0.65372686  0.13352966     0.01400
C1562       C  0.68829506  0.66415651  0.13848516     0.07500
C1563       C  0.68942808  0.67917679  0.14847628    -0.05600
H1564       H  0.65877744  0.64052404  0.12584306     0.08100
H1565       H  0.70395879  0.69053017  0.15467034     0.09300
Cu1566     Cu  0.62266505  0.65294768  0.13642849     0.44200
Cu1567     Cu  0.65849547  0.69571545  0.16117576     0.42000
Cu1568     Cu  0.60035560  0.68231714  0.15268477     0.43900
N1569       N  0.59047630  0.64573134  0.13271435    -0.34300
N1570       N  0.58190497  0.65678330  0.13863113    -0.28500
C1571       C  0.56089446  0.64879387  0.13375827    -0.04600
C1572       C  0.55617164  0.63191066  0.12423423     0.07600
C1573       C  0.57535374  0.63043818  0.12392044     0.01400
H1574       H  0.55000849  0.65487827  0.13694963     0.09000
H1575       H  0.57846120  0.61958205  0.11746299     0.08100
N1576       N  0.62119479  0.70554020  0.16734487    -0.35700
N1577       N  0.64170469  0.71024566  0.17078426    -0.27900
C1578       C  0.64919518  0.72528624  0.18125031    -0.03100
C1579       C  0.63259786  0.73021380  0.18458221     0.05500
C1580       C  0.61525056  0.71742152  0.17536416     0.03600
H1581       H  0.66541622  0.73183748  0.18621573     0.08700
H1582       H  0.59932379  0.71664927  0.17434650     0.07500
N1583       N  0.00231863  0.68604857  0.14381395    -0.26900
N1584       N  0.00122755  0.67240032  0.13391067    -0.34700
C1585       C  0.98210595  0.66495092  0.12669082     0.01400
C1586       C  0.97029850  0.67424555  0.13222893     0.07500
C1587       C  0.98360632  0.68748349  0.14316495    -0.05600
H1588       H  0.97677279  0.65276344  0.11841255     0.08100
H1589       H  0.97983799  0.69719644  0.15022705     0.09300
Cu1590     Cu  0.02457163  0.66277821  0.13091608     0.44200
Cu1591     Cu  0.02935425  0.70120107  0.15773625     0.42000
Cu1592     Cu  0.07355944  0.68694092  0.15180898     0.43900
N1593       N  0.04882169  0.65411096  0.12911233    -0.34300
N1594       N  0.06737361  0.66325599  0.13665610    -0.28500
C1595       C  0.07989924  0.65440720  0.13281142    -0.04600
C1596       C  0.06843311  0.63872624  0.12243103     0.07600
C1597       C  0.04885381  0.63912966  0.12034868     0.01400
H1598       H  0.09602125  0.65891663  0.13730775     0.09000
H1599       H  0.03578711  0.62968388  0.11278751     0.08100
N1600       N  0.07487353  0.70889842  0.16687471    -0.35700
N1601       N  0.05916869  0.71396917  0.16924680    -0.27900
C1602       C  0.06579064  0.72836661  0.18001642    -0.03100
C1603       C  0.08668869  0.73260430  0.18464097     0.05500
C1604       C  0.09175801  0.71989274  0.17597852     0.03600
H1605       H  0.05581813  0.73485993  0.18425119     0.08700
H1606       H  0.10674060  0.71871026  0.17615553     0.07500
N1607       N  0.78091037  0.63343314  0.11809423    -0.26900
N1608       N  0.76508317  0.62036314  0.10911268    -0.34700
C1609       C  0.74713954  0.62266479  0.11075525     0.01400
C1610       C  0.75165744  0.63795058  0.12127366     0.07500
C1611       C  0.77326844  0.64439503  0.12574701    -0.05600
H1612       H  0.73197087  0.61396400  0.10455609     0.08100
H1613       H  0.78308024  0.65674610  0.13359658     0.09300
Cu1614     Cu  0.76805939  0.60081454  0.09413008     0.44200
Cu1615     Cu  0.81256556  0.63653715  0.11880567     0.42000
Cu1616     Cu  0.82004374  0.60265781  0.09272849     0.43900
N1617       N  0.77509976  0.58442029  0.07893611    -0.34300
N1618       N  0.79451976  0.58510972  0.07843278    -0.28500
C1619       C  0.79485746  0.57408726  0.06710444    -0.04600
C1620       C  0.77464121  0.56610039  0.06014643     0.07600
C1621       C  0.76247183  0.57291214  0.06795016     0.01400
H1622       H  0.80897695  0.57245080  0.06402665     0.09000
H1623       H  0.74593127  0.57019500  0.06566708     0.08100
N1624       N  0.84475496  0.62382440  0.10665780    -0.35700
N1625       N  0.84233835  0.63621116  0.11610203    -0.27900
C1626       C  0.86208293  0.64855090  0.12288026    -0.03100
C1627       C  0.87769028  0.64376186  0.11738476     0.05500
C1628       C  0.86598560  0.62799280  0.10713809     0.03600
H1629       H  0.86497772  0.66060413  0.13091140     0.08700
H1630       H  0.87242728  0.62012530  0.10042175     0.07500
O1631       O  0.18653529  0.84868744  0.26213042    -0.72500
O1632       O  0.14274033  0.80628767  0.23357239    -0.73500
O1633       O  0.14445629  0.80691393  0.26305502    -0.62100
O1634       O  0.18493124  0.84802573  0.23277989    -0.70600
O1635       O  0.20303857  0.82940419  0.23264829    -0.70100
O1636       O  0.16247498  0.78822587  0.26241854    -0.61400
O1637       O  0.16108620  0.78792859  0.23315139    -0.73900
O1638       O  0.20433974  0.82977822  0.26176810    -0.72700
Cu1639     Cu  0.16399827  0.82811710  0.24790959     1.04600
Cu1640     Cu  0.18332048  0.80819093  0.24748116     1.04300
C1641       C  0.20244450  0.84598327  0.26643910     0.93700
C1642       C  0.14511704  0.79044615  0.22873847     0.92800
C1643       C  0.14708957  0.79104937  0.26754400     0.84900
C1644       C  0.20058688  0.84526699  0.22800647     0.91200
C1645       C  0.11766072  0.74378036  0.20188004    -0.20900
C1646       C  0.10082034  0.74709597  0.19631206    -0.08900
C1647       C  0.09828042  0.76450256  0.20182790     0.29900
C1648       C  0.11246414  0.77826774  0.21247772    -0.20900
C1649       C  0.12954248  0.77512725  0.21784793    -0.09000
C1650       C  0.13185964  0.75754871  0.21243686     0.29900
F1651       F  0.14796021  0.75362447  0.21721605    -0.19500
H1652       H  0.11996226  0.73040447  0.19810441     0.18300
H1653       H  0.11026393  0.79166881  0.21637139     0.18300
F1654       F  0.08268772  0.76885476  0.19670021    -0.19500
C1655       C  0.93239388  0.66876447  0.13800380    -0.20900
C1656       C  0.94732329  0.66884972  0.12813064    -0.08900
C1657       C  0.93953901  0.66223184  0.11452115     0.29900
C1658       C  0.91707692  0.65459992  0.11112447    -0.20900
C1659       C  0.90184051  0.65353482  0.12111983    -0.09000
C1660       C  0.90985130  0.66113733  0.13458073     0.29900
F1661       F  0.89569868  0.66006635  0.14464592    -0.19500
H1662       H  0.93788158  0.67368396  0.14855550     0.18300
H1663       H  0.91160675  0.64945029  0.10059399     0.18300
F1664       F  0.95360617  0.66321340  0.10441236    -0.19500
C1665       C  0.72124759  0.64604843  0.11633486    -0.20900
C1666       C  0.73675551  0.64629409  0.12577852    -0.08900
C1667       C  0.73721907  0.65392591  0.13932176     0.29900
C1668       C  0.72195090  0.66050826  0.14332995    -0.20900
C1669       C  0.70593010  0.65943536  0.13395645    -0.09000
C1670       C  0.70606558  0.65253431  0.12030634     0.29900
F1671       F  0.69172189  0.65228781  0.11065672    -0.19500
H1672       H  0.72084073  0.64086315  0.10574804     0.18300
H1673       H  0.72210600  0.66564681  0.15390262     0.18300
F1674       F  0.75161538  0.65403706  0.14886377    -0.19500
C1675       C  0.50391307  0.61557749  0.10293973    -0.20900
C1676       C  0.49876417  0.59452486  0.09777929    -0.08900
C1677       C  0.51201994  0.58551501  0.10164392     0.29900
C1678       C  0.53035492  0.59758519  0.11050118    -0.20900
C1679       C  0.53581727  0.61886913  0.11557841    -0.09000
C1680       C  0.52233683  0.62776017  0.11173340     0.29900
F1681       F  0.52743836  0.64857573  0.11592052    -0.19500
H1682       H  0.49379063  0.62269000  0.09996140     0.18300
H1683       H  0.54032866  0.59026087  0.11334122     0.18300
F1684       F  0.50739941  0.56522494  0.09667113    -0.19500
C1685       C  0.34520959  0.51479800  0.04534046    -0.20900
C1686       C  0.36499952  0.51931211  0.03856153    -0.08900
C1687       C  0.36469310  0.51655769  0.02417461     0.29900
C1688       C  0.34499501  0.51023963  0.01666284    -0.20900
C1689       C  0.32540938  0.50667645  0.02340096    -0.09000
C1690       C  0.32555456  0.50840677  0.03789941     0.29900
F1691       F  0.30673250  0.50387646  0.04497497    -0.19500
H1692       H  0.34518594  0.51683682  0.05642388     0.18300
H1693       H  0.34531595  0.50893423  0.00554205     0.18300
F1694       F  0.38367452  0.52079240  0.01739098    -0.19500
C1695       C  0.46725591  0.82497125  0.04653219    -0.20900
C1696       C  0.46338740  0.84024701  0.03940898    -0.08900
C1697       C  0.46873019  0.84415890  0.02531828     0.29900
C1698       C  0.47772780  0.83277081  0.01846836    -0.20900
C1699       C  0.48145646  0.81727324  0.02555611    -0.09000
C1700       C  0.47628189  0.81363970  0.03975065     0.29900
F1701       F  0.48043899  0.79963177  0.04724296    -0.19500
H1702       H  0.46340039  0.82196778  0.05743887     0.18300
H1703       H  0.48142657  0.83583306  0.00756187     0.18300
F1704       F  0.46532916  0.85904712  0.01823549    -0.19500
C1705       C  0.48114943  0.66240658  0.03642662    -0.20900
C1706       C  0.48199374  0.66236646  0.02192491    -0.08900
C1707       C  0.47586474  0.64203182  0.01508020     0.29900
C1708       C  0.46881531  0.62221324  0.02266316    -0.20900
C1709       C  0.46756702  0.62230933  0.03713690    -0.09000
C1710       C  0.47387241  0.64263720  0.04394881     0.29900
F1711       F  0.47230220  0.64321139  0.05789135    -0.19500
H1712       H  0.48589919  0.67776663  0.04202564     0.18300
H1713       H  0.46371697  0.60660686  0.01724157     0.18300
F1714       F  0.47555679  0.64098315  0.00109971    -0.19500
C1715       C  0.09886004  0.63379328  0.11227587    -0.20900
C1716       C  0.07576560  0.62517728  0.11469476    -0.08900
C1717       C  0.05977119  0.60388254  0.10924061     0.29900
C1718       C  0.06677545  0.59191284  0.10115397    -0.20900
C1719       C  0.08975800  0.60089537  0.09842182    -0.09000
C1720       C  0.10582539  0.62179430  0.10414980     0.29900
F1721       F  0.12820411  0.63060464  0.10176965    -0.19500
H1722       H  0.11149528  0.65009360  0.11636278     0.18300
H1723       H  0.05426939  0.57566820  0.09692196     0.18300
F1724       F  0.03739077  0.59440142  0.11190470    -0.19500
C1725       C  0.14388184  0.52179327  0.02660086    -0.20900
C1726       C  0.14943453  0.52763008  0.04051554    -0.08900
C1727       C  0.16610426  0.52472340  0.04665011     0.29900
C1728       C  0.17726157  0.51641685  0.03891406    -0.20900
C1729       C  0.17222979  0.51102712  0.02484290    -0.09000
C1730       C  0.15516228  0.51359680  0.01878552     0.29900
F1731       F  0.14996082  0.50916857  0.00522012    -0.19500
H1732       H  0.13111429  0.52408003  0.02172789     0.18300
H1733       H  0.19002711  0.51440869  0.04400328     0.18300
F1734       F  0.17201841  0.53052874  0.06004485    -0.19500
C1735       C  0.36737380  0.85039162  0.02196004    -0.20900
C1736       C  0.36637434  0.84818539  0.03640188    -0.08900
C1737       C  0.34521858  0.83520496  0.04279435     0.29900
C1738       C  0.32555247  0.82418548  0.03488269    -0.20900
C1739       C  0.32646020  0.82555430  0.02039315    -0.09000
C1740       C  0.34762644  0.83912442  0.01397922     0.29900
F1741       F  0.34947599  0.84059587  0.00003420    -0.19500
H1742       H  0.38356837  0.86029850  0.01685957     0.18300
H1743       H  0.30956510  0.81418911  0.04017045     0.18300
F1744       F  0.34364797  0.83251379  0.05670420    -0.19500
C1745       C  0.17143231  0.66770480  0.03441987    -0.20900
C1746       C  0.16965427  0.66666381  0.01993479    -0.08900
C1747       C  0.15536988  0.64548726  0.01371155     0.29900
C1748       C  0.14372047  0.62590654  0.02185752    -0.20900
C1749       C  0.14619143  0.62705989  0.03630127    -0.09000
C1750       C  0.15999577  0.64823811  0.04248776     0.29900
F1751       F  0.16299690  0.65001855  0.05637439    -0.19500
H1752       H  0.18194721  0.68366711  0.03961044     0.18300
H1753       H  0.13320158  0.60972046  0.01688181     0.18300
F1754       F  0.15343334  0.64346689  0.99978560    -0.19500
C1755       C  0.24960469  0.87399569  0.20278514    -0.20900
C1756       C  0.24417490  0.88786748  0.19526209    -0.08900
C1757       C  0.22455956  0.88812094  0.19886373     0.29900
C1758       C  0.21062959  0.87448417  0.20961445    -0.20900
C1759       C  0.21591243  0.86033713  0.21699314    -0.09000
C1760       C  0.23579992  0.86050153  0.21356300     0.29900
F1761       F  0.24217623  0.84785350  0.22071063    -0.19500
H1762       H  0.26479071  0.87376565  0.20044912     0.18300
H1763       H  0.19545428  0.87472098  0.21199721     0.18300
F1764       F  0.21831824  0.90088171  0.19173433    -0.19500
C1765       C  0.32129010  0.05702713  0.13953797    -0.20900
C1766       C  0.32059721  0.04164732  0.12980084    -0.08900
C1767       C  0.32433513  0.04788958  0.11581854     0.29900
C1768       C  0.32981923  0.06942678  0.11178429    -0.20900
C1769       C  0.33172727  0.08532005  0.12153174    -0.09000
C1770       C  0.32688188  0.07876848  0.13547373     0.29900
F1771       F  0.32866368  0.09359779  0.14527272    -0.19500
H1772       H  0.31842679  0.05254951  0.15036494     0.18300
H1773       H  0.33270926  0.07366089  0.10093217     0.18300
F1774       F  0.32255714  0.03313771  0.10595307    -0.19500
C1775       C  0.38917098  0.93471750  0.10620158    -0.20900
C1776       C  0.37057354  0.91829491  0.11390870    -0.08900
C1777       C  0.36577942  0.89586264  0.11370322     0.29900
C1778       C  0.37879067  0.89002431  0.10567268    -0.20900
C1779       C  0.39688183  0.90632338  0.09778863    -0.09000
C1780       C  0.40227795  0.92882591  0.09825482     0.29900
F1781       F  0.41985647  0.94492532  0.09076825    -0.19500
H1782       H  0.39357027  0.95216277  0.10625163     0.18300
H1783       H  0.37442785  0.87257881  0.10533973     0.18300
F1784       F  0.34794264  0.87924868  0.12071828    -0.19500
C1785       C  0.32540290  0.26494228  0.14238385    -0.20900
C1786       C  0.32567509  0.28093212  0.13334896    -0.08900
C1787       C  0.32935410  0.27957554  0.11921335     0.29900
C1788       C  0.33358640  0.26317958  0.11433065    -0.20900
C1789       C  0.33444474  0.24779854  0.12338002    -0.09000
C1790       C  0.32987272  0.24855195  0.13749451     0.29900
F1791       F  0.33081853  0.23431230  0.14669799    -0.19500
H1792       H  0.32266364  0.26572995  0.15332109     0.18300
H1793       H  0.33636679  0.26270172  0.10337881     0.18300
F1794       F  0.32871575  0.29403110  0.11003115    -0.19500
C1795       C  0.39503494  0.46072035  0.11222270    -0.20900
C1796       C  0.37489211  0.45577276  0.11887082    -0.08900
C1797       C  0.36581057  0.46951392  0.11618062     0.29900
C1798       C  0.37650202  0.48745511  0.10682620    -0.20900
C1799       C  0.39639013  0.49204433  0.10008401    -0.09000
C1800       C  0.40574515  0.47872237  0.10295914     0.29900
F1801       F  0.42506478  0.48295620  0.09662271    -0.19500
H1802       H  0.40252082  0.45059157  0.11417088     0.18300
H1803       H  0.36916224  0.49767720  0.10471032     0.18300
F1804       F  0.34614704  0.46511522  0.12208114    -0.19500
C1805       C  0.73036396  0.05609129  0.13777828    -0.20900
C1806       C  0.70756988  0.05004730  0.13756371    -0.08900
C1807       C  0.70220895  0.06595333  0.13291937     0.29900
C1808       C  0.71906399  0.08687330  0.12789606    -0.20900
C1809       C  0.74172344  0.09261590  0.12741952    -0.09000
C1810       C  0.74736492  0.07720038  0.13271677     0.29900
F1811       F  0.76900384  0.08193389  0.13230433    -0.19500
H1812       H  0.73489312  0.04411252  0.14131037     0.18300
H1813       H  0.71427179  0.09859771  0.12425734     0.18300
F1814       F  0.68060905  0.06136234  0.13328057    -0.19500
C1815       C  0.53073808  0.93233921  0.11018106    -0.20900
C1816       C  0.53437086  0.91632806  0.11674479    -0.08900
C1817       C  0.51845876  0.89320842  0.11467466     0.29900
C1818       C  0.49965860  0.88643759  0.10613858    -0.20900
C1819       C  0.49622693  0.90247731  0.09958406    -0.09000
C1820       C  0.51185140  0.92551590  0.10171694     0.29900
F1821       F  0.50907064  0.94137680  0.09535602    -0.19500
H1822       H  0.54254052  0.95022829  0.11158698     0.18300
H1823       H  0.48785762  0.86859880  0.10446949     0.18300
F1824       F  0.52145155  0.87707330  0.12039476    -0.19500
C1825       C  0.91750032  0.25040518  0.13164526    -0.20900
C1826       C  0.91171041  0.25026723  0.11771613    -0.08900
C1827       C  0.92829688  0.26608464  0.10866149     0.29900
C1828       C  0.94965488  0.28230628  0.11360533    -0.20900
C1829       C  0.95513440  0.28309195  0.12762682    -0.09000
C1830       C  0.93897129  0.26664712  0.13658994     0.29900
F1831       F  0.94335148  0.26704345  0.15026439    -0.19500
H1832       H  0.90509902  0.23849260  0.13886158     0.18300
H1833       H  0.96192330  0.29446907  0.10642450     0.18300
F1834       F  0.92402448  0.26587078  0.09498254    -0.19500
C1835       C  0.06226474  0.46688871  0.11373891    -0.20900
C1836       C  0.07834594  0.46312391  0.12005568    -0.08900
C1837       C  0.10147348  0.47906025  0.11802569     0.29900
C1838       C  0.10819015  0.49781434  0.10946920    -0.20900
C1839       C  0.09206051  0.50115134  0.10290827    -0.09000
C1840       C  0.06901580  0.48574943  0.10530183     0.29900
F1841       F  0.05305821  0.48854735  0.09907842    -0.19500
H1842       H  0.04437338  0.45503182  0.11519356     0.18300
H1843       H  0.12602929  0.50948554  0.10764983     0.18300
F1844       F  0.11761500  0.47592508  0.12362837    -0.19500
C1845       C  0.61405932  0.75910827  0.21046193    -0.20900
C1846       C  0.63469979  0.77541925  0.21640733    -0.08900
C1847       C  0.65460850  0.77643749  0.21196416     0.29900
C1848       C  0.65376088  0.76172041  0.20169643    -0.20900
C1849       C  0.63311608  0.74556014  0.19562925    -0.09000
C1850       C  0.61315976  0.74432672  0.20030301     0.29900
F1851       F  0.59253102  0.72851203  0.19544459    -0.19500
H1852       H  0.59836474  0.75761252  0.21373600     0.18300
H1853       H  0.66942388  0.76316960  0.19844270     0.18300
F1854       F  0.67492716  0.79147181  0.21759257    -0.19500
C1855       C  0.61273501  0.85805046  0.21475618    -0.20900
C1856       C  0.63369618  0.86102755  0.21864386    -0.08900
C1857       C  0.65348321  0.87923871  0.21283828     0.29900
C1858       C  0.65206998  0.89364131  0.20320699    -0.20900
C1859       C  0.63099458  0.89029537  0.19913745    -0.09000
C1860       C  0.61133412  0.87243964  0.20523215     0.29900
F1861       F  0.59063269  0.86908419  0.20233708    -0.19500
H1862       H  0.59718793  0.84452534  0.21916921     0.18300
H1863       H  0.66753720  0.90722113  0.19876400     0.18300
F1864       F  0.67419942  0.88309998  0.21632822    -0.19500
C1865       C  0.12269521  0.38106404  0.20370762    -0.20900
C1866       C  0.10432140  0.36115595  0.19823044    -0.08900
C1867       C  0.10044976  0.34025734  0.20320268     0.29900
C1868       C  0.11476883  0.33953012  0.21313502    -0.20900
C1869       C  0.13328009  0.35946492  0.21840020    -0.09000
C1870       C  0.13697555  0.38031929  0.21361284     0.29900
F1871       F  0.15435846  0.40014688  0.21848386    -0.19500
H1872       H  0.12616316  0.39747087  0.20041274     0.18300
H1873       H  0.11136531  0.32321112  0.21665132     0.18300
F1874       F  0.08316320  0.32036692  0.19841734    -0.19500
C1875       C  0.23817854  0.37523273  0.21640607    -0.20900
C1876       C  0.21717763  0.35532474  0.21849367    -0.08900
C1877       C  0.21203660  0.33605717  0.21067271     0.29900
C1878       C  0.22761268  0.33694717  0.20099011    -0.20900
C1879       C  0.24850842  0.35700669  0.19886408    -0.09000
C1880       C  0.25367340  0.37610611  0.20681835     0.29900
F1881       F  0.27400997  0.39555502  0.20571073    -0.19500
H1882       H  0.24286349  0.39026536  0.22237116     0.18300
H1883       H  0.22313137  0.32202184  0.19497041     0.18300
F1884       F  0.19187313  0.31650991  0.21214950    -0.19500
C1885       C  0.10326089  0.76495869  0.29626888    -0.20900
C1886       C  0.10425063  0.74576325  0.29971273    -0.08900
C1887       C  0.11943736  0.74167553  0.29245989     0.29900
C1888       C  0.13329018  0.75652470  0.28213875    -0.20900
C1889       C  0.13230601  0.77571496  0.27867584    -0.09000
C1890       C  0.11709867  0.77980268  0.28590532     0.29900
F1891       F  0.11568853  0.79823869  0.28311244    -0.19500
H1892       H  0.09193895  0.76871561  0.30172660     0.18300
H1893       H  0.14465481  0.75276754  0.27671967     0.18300
F1894       F  0.12050936  0.72297906  0.29495573    -0.19500
C1895       C  0.92199457  0.66314904  0.38365867    -0.20900
C1896       C  0.90671464  0.66205181  0.37367279    -0.08900
C1897       C  0.91430591  0.66808126  0.35996243     0.29900
C1898       C  0.93631770  0.67392731  0.35633802    -0.20900
C1899       C  0.95096609  0.67358815  0.36623370    -0.09000
C1900       C  0.94377526  0.66873016  0.38002166     0.29900
F1901       F  0.95776882  0.66932973  0.39005202    -0.19500
H1902       H  0.91709453  0.65943169  0.39437855     0.18300
H1903       H  0.94151696  0.67763873  0.34564893     0.18300
F1904       F  0.90026975  0.66721263  0.34989442    -0.19500
C1905       C  0.65196868  0.75687756  0.29010984    -0.20900
C1906       C  0.63110474  0.74055934  0.29588482    -0.08900
C1907       C  0.61144236  0.74013632  0.29149763     0.29900
C1908       C  0.61276847  0.75573477  0.28183134    -0.20900
C1909       C  0.63358067  0.77215958  0.27614624    -0.09000
C1910       C  0.65326528  0.77249474  0.28035666     0.29900
F1911       F  0.67376217  0.78770155  0.27499183    -0.19500
H1912       H  0.66742483  0.75772859  0.29319812     0.18300
H1913       H  0.59726501  0.75482545  0.27875748     0.18300
F1914       F  0.59067120  0.72430999  0.29615496    -0.19500
C1915       C  0.69635304  0.62839276  0.35805906    -0.20900
C1916       C  0.70254495  0.64905610  0.35169681    -0.08900
C1917       C  0.72572857  0.66525717  0.35014398     0.29900
C1918       C  0.74211330  0.66117238  0.35555749    -0.20900
C1919       C  0.73568535  0.64101129  0.36264840    -0.09000
C1920       C  0.71261597  0.62438963  0.36348977     0.29900
F1921       F  0.70566635  0.60412705  0.36951576    -0.19500
H1922       H  0.67875455  0.61523619  0.35901891     0.18300
H1923       H  0.75979806  0.67418749  0.35471494     0.18300
F1924       F  0.73263736  0.68546404  0.34408016    -0.19500
C1925       C  0.49573921  0.60045192  0.38294378    -0.20900
C1926       C  0.49855128  0.59287530  0.39576794    -0.08900
C1927       C  0.51975382  0.59641090  0.39940017     0.29900
C1928       C  0.53795234  0.60746213  0.39030120    -0.20900
C1929       C  0.53537509  0.61533047  0.37745256    -0.09000
C1930       C  0.51398252  0.61165604  0.37383304     0.29900
F1931       F  0.51048630  0.61839331  0.36142417    -0.19500
H1932       H  0.47941107  0.59781614  0.38006228     0.18300
H1933       H  0.55419157  0.61019357  0.39345811     0.18300
F1934       F  0.52283853  0.58930591  0.41180479    -0.19500
C1935       C  0.33767022  0.52881378  0.46717621    -0.20900
C1936       C  0.32762818  0.50743577  0.47341584    -0.08900
C1937       C  0.33873045  0.49523573  0.47270065     0.29900
C1938       C  0.35898858  0.50394525  0.46530659    -0.20900
C1939       C  0.36850370  0.52496435  0.45867372    -0.09000
C1940       C  0.35796502  0.53758522  0.45994551     0.29900
F1941       F  0.36695852  0.55809927  0.45380534    -0.19500
H1942       H  0.32960571  0.53865996  0.46773809     0.18300
H1943       H  0.36699697  0.49407623  0.46444239     0.18300
F1944       F  0.32942656  0.47442786  0.47845531    -0.19500
C1945       C  0.07597977  0.60613633  0.40449857    -0.20900
C1946       C  0.09280932  0.60264877  0.39927035    -0.08900
C1947       C  0.10175838  0.61088908  0.38611478     0.29900
C1948       C  0.09385405  0.62240983  0.37830739    -0.20900
C1949       C  0.07686807  0.62591978  0.38346634    -0.09000
C1950       C  0.06807314  0.61766918  0.39675477     0.29900
F1951       F  0.05235150  0.62123464  0.40255721    -0.19500
H1952       H  0.06912401  0.60007852  0.41470860     0.18300
H1953       H  0.10098315  0.62842730  0.36816272     0.18300
F1954       F  0.11834854  0.60805074  0.38092078    -0.19500
C1955       C  0.17404358  0.63684087  0.46336295    -0.20900
C1956       C  0.15056597  0.62613734  0.46192654    -0.08900
C1957       C  0.13895917  0.63488261  0.46894077     0.29900
C1958       C  0.15098390  0.65476020  0.47673466    -0.20900
C1959       C  0.17471202  0.66613639  0.47762898    -0.09000
C1960       C  0.18602721  0.65650758  0.47117333     0.29900
F1961       F  0.20869551  0.66591175  0.47244467    -0.19500
H1962       H  0.18317564  0.63009616  0.45818716     0.18300
H1963       H  0.14179857  0.66161793  0.48168855     0.18300
F1964       F  0.11612766  0.62445061  0.46800795    -0.19500
C1965       C  0.14878190  0.49712425  0.47127866    -0.20900
C1966       C  0.17246560  0.50775722  0.47072281    -0.08900
C1967       C  0.18494325  0.52861046  0.46380021     0.29900
C1968       C  0.17388044  0.53800659  0.45711654    -0.20900
C1969       C  0.15027781  0.52694521  0.45722765    -0.09000
C1970       C  0.13772059  0.50660722  0.46453096     0.29900
F1971       F  0.11482760  0.49583569  0.46492806    -0.19500
H1972       H  0.13880400  0.48117428  0.47660082     0.18300
H1973       H  0.18373535  0.55383918  0.45163978     0.18300
F1974       F  0.20787097  0.54019425  0.46362609    -0.19500
C1975       C  0.49958498  0.65781463  0.46926988    -0.20900
C1976       C  0.48680682  0.66829500  0.46991120    -0.08900
C1977       C  0.46491639  0.65711946  0.46419601     0.29900
C1978       C  0.45639699  0.63632142  0.45759779    -0.20900
C1979       C  0.46946726  0.62627021  0.45650845    -0.09000
C1980       C  0.49106253  0.63701179  0.46255885     0.29900
F1981       F  0.50402426  0.62759460  0.46171671    -0.19500
H1982       H  0.51645004  0.66605825  0.47359623     0.18300
H1983       H  0.43965516  0.62816922  0.45308326     0.18300
F1984       F  0.45157932  0.66611114  0.46510426    -0.19500
C1985       C  0.48908756  0.85862157  0.46331228    -0.20900
C1986       C  0.46707764  0.84605745  0.45799050    -0.08900
C1987       C  0.45435396  0.82263949  0.46009344     0.29900
C1988       C  0.46389131  0.81183750  0.46693808    -0.20900
C1989       C  0.48621025  0.82420373  0.47187826    -0.09000
C1990       C  0.49862501  0.84781697  0.47026561     0.29900
F1991       F  0.52037240  0.86026847  0.47461639    -0.19500
H1992       H  0.49908664  0.87669618  0.46167136     0.18300
H1993       H  0.45391180  0.79367364  0.46816516     0.18300
F1994       F  0.43304048  0.81013036  0.45500622    -0.19500
C1995       C  0.36236294  0.82758797  0.46662998    -0.20900
C1996       C  0.37043173  0.84979879  0.46229702    -0.08900
C1997       C  0.35930545  0.86089130  0.46680523     0.29900
C1998       C  0.33970965  0.84935677  0.47492035    -0.20900
C1999       C  0.33102999  0.82668373  0.47859074    -0.09000
C2000       C  0.34300533  0.81617718  0.47474685     0.29900
F2001       F  0.33589388  0.79472145  0.47873917    -0.19500
H2002       H  0.37079397  0.81882296  0.46338417     0.18300
H2003       H  0.33079915  0.85779421  0.47781608     0.18300
F2004       F  0.36695191  0.88253417  0.46297226    -0.19500
C2005       C  0.23349075  0.89428143  0.29204576    -0.20900
C2006       C  0.25027507  0.89041914  0.29704086    -0.08900
C2007       C  0.25141527  0.87214021  0.29161207     0.29900
C2008       C  0.23584738  0.85793352  0.28172118    -0.20900
C2009       C  0.21884282  0.86156026  0.27687720    -0.09000
C2010       C  0.21794397  0.88008547  0.28208349     0.29900
F2011       F  0.20206254  0.88455302  0.27762687    -0.19500
H2012       H  0.23210843  0.90814005  0.29599004     0.18300
H2013       H  0.23721630  0.84402863  0.27782277     0.18300
F2014       F  0.26784244  0.86812987  0.29552059    -0.19500
C2015       C  0.35701768  0.08286658  0.37435697    -0.20900
C2016       C  0.34084669  0.08900177  0.37220655    -0.08900
C2017       C  0.32165949  0.07473204  0.36418417     0.29900
C2018       C  0.31853404  0.05440701  0.35888934    -0.20900
C2019       C  0.33453422  0.04804298  0.36138303    -0.09000
C2020       C  0.35411090  0.06288255  0.36896612     0.29900
F2021       F  0.37094259  0.05860388  0.37096467    -0.19500
H2022       H  0.37230977  0.09376886  0.38010382     0.18300
H2023       H  0.30333577  0.04345110  0.35308056     0.18300
F2024       F  0.30555243  0.07994500  0.36184290    -0.19500
C2025       C  0.38539777  0.89144959  0.38411917    -0.20900
C2026       C  0.39215865  0.90055062  0.39739272    -0.08900
C2027       C  0.38748241  0.91691804  0.40200683     0.29900
C2028       C  0.37637837  0.92421346  0.39338148    -0.20900
C2029       C  0.36957562  0.91519530  0.38004974    -0.09000
C2030       C  0.37410008  0.89860619  0.37549759     0.29900
F2031       F  0.36827207  0.88978461  0.36261147    -0.19500
H2032       H  0.38890780  0.87879025  0.38046082     0.18300
H2033       H  0.37291426  0.93680381  0.39721772     0.18300
F2034       F  0.39378505  0.92590624  0.41483948    -0.19500
C2035       C  0.21045594  0.33452639  0.28487358    -0.20900
C2036       C  0.21556959  0.35503722  0.27869905    -0.08900
C2037       C  0.23461041  0.37516636  0.28344481     0.29900
C2038       C  0.24798166  0.37468202  0.29407708    -0.20900
C2039       C  0.24283336  0.35424545  0.30033268    -0.09000
C2040       C  0.22384496  0.33407425  0.29558745     0.29900
F2041       F  0.21765931  0.31397035  0.30156273    -0.19500
H2042       H  0.19584850  0.31877000  0.28154818     0.18300
H2043       H  0.26256993  0.39048504  0.29733079     0.18300
F2044       F  0.24044504  0.39546607  0.27787268    -0.19500
C2045       C  0.34976937  0.28850033  0.36773629    -0.20900
C2046       C  0.32861799  0.28141940  0.36168229    -0.08900
C2047       C  0.31294034  0.25801724  0.36061743     0.29900
C2048       C  0.31827697  0.24237887  0.36582697    -0.20900
C2049       C  0.33911407  0.24970665  0.37236228    -0.09000
C2050       C  0.35492603  0.27299960  0.37307601     0.29900
F2051       F  0.37567833  0.28095448  0.37869836    -0.19500
H2052       H  0.36262101  0.30620938  0.36840301     0.18300
H2053       H  0.30579988  0.22451932  0.36513870     0.18300
F2054       F  0.29220107  0.25013236  0.35502898    -0.19500
C2055       C  0.37980695  0.45006362  0.39350351    -0.20900
C2056       C  0.37113654  0.45196067  0.38076354    -0.08900
C2057       C  0.37578464  0.47341379  0.37651530     0.29900
C2058       C  0.38825057  0.49229351  0.38501474    -0.20900
C2059       C  0.39628118  0.49016244  0.39786383    -0.09000
C2060       C  0.39220777  0.46894418  0.40199648     0.29900
F2061       F  0.40004232  0.46648794  0.41430809    -0.19500
H2062       H  0.37658251  0.43384033  0.39706866     0.18300
H2063       H  0.39142341  0.50860661  0.38165919     0.18300
F2064       F  0.36870452  0.47629824  0.36405699    -0.19500
C2065       C  0.64906855  0.88714053  0.29517295    -0.20900
C2066       C  0.62803346  0.88482339  0.29813982    -0.08900
C2067       C  0.60883737  0.86825858  0.29094263     0.29900
C2068       C  0.61074983  0.85449685  0.28115736    -0.20900
C2069       C  0.63177182  0.85689813  0.27810324    -0.09000
C2070       C  0.65099924  0.87343772  0.28527193     0.29900
F2071       F  0.67168650  0.87642608  0.28278487    -0.19500
H2072       H  0.66414938  0.89955452  0.30056472     0.18300
H2073       H  0.59563338  0.84213978  0.27575088     0.18300
F2074       F  0.58823840  0.86575190  0.29287886    -0.19500
C2075       C  0.72373539  0.05794188  0.35288874    -0.20900
C2076       C  0.70486591  0.04364240  0.36106132    -0.08900
C2077       C  0.70374874  0.05052875  0.37454727     0.29900
C2078       C  0.72050261  0.07165598  0.37943399    -0.20900
C2079       C  0.73884494  0.08663846  0.37105749    -0.09000
C2080       C  0.74052264  0.07927430  0.35776019     0.29900
F2081       F  0.75773076  0.09290715  0.34916935    -0.19500
H2082       H  0.72502780  0.05300199  0.34248674     0.18300
H2083       H  0.71889475  0.07624134  0.38985480     0.18300
F2084       F  0.68652693  0.03677525  0.38313586    -0.19500
C2085       C  0.51476255  0.91767753  0.39861083    -0.20900
C2086       C  0.49323648  0.90056965  0.39435518    -0.08900
C2087       C  0.49044151  0.89141038  0.38106532     0.29900
C2088       C  0.50902626  0.89933794  0.37217798    -0.20900
C2089       C  0.53063927  0.91664571  0.37636261    -0.09000
C2090       C  0.53331617  0.92569354  0.38975259     0.29900
F2091       F  0.55394093  0.94168433  0.39454466    -0.19500
H2092       H  0.51719176  0.92469971  0.40889764     0.18300
H2093       H  0.50646614  0.89205809  0.36196647     0.18300
F2094       F  0.46980605  0.87462609  0.37678236    -0.19500
C2095       C  0.10224942  0.34368586  0.29426250    -0.20900
C2096       C  0.10460163  0.36481925  0.29684391    -0.08900
C2097       C  0.12141924  0.38375880  0.28960060     0.29900
C2098       C  0.13554083  0.38156657  0.28021154    -0.20900
C2099       C  0.13326058  0.36048536  0.27763489    -0.09000
C2100       C  0.11637821  0.34148014  0.28480441     0.29900
F2101       F  0.11361443  0.32078897  0.28283069    -0.19500
H2102       H  0.08961072  0.32880044  0.29970875     0.18300
H2103       H  0.14812664  0.39649810  0.27476267     0.18300
F2104       F  0.12384878  0.40436969  0.29116552    -0.19500
C2105       C  0.93150650  0.27090538  0.35156439    -0.20900
C2106       C  0.94734088  0.28715079  0.36073181    -0.08900
C2107       C  0.94172374  0.28538837  0.37482200     0.29900
C2108       C  0.92033273  0.26867864  0.37944723    -0.20900
C2109       C  0.90401995  0.25308444  0.37022884    -0.09000
C2110       C  0.91002317  0.25401056  0.35623391     0.29900
F2111       F  0.89481227  0.23942684  0.34692484    -0.19500
H2112       H  0.93542520  0.27183107  0.34067762     0.18300
H2113       H  0.91651036  0.26802677  0.39033257     0.18300
F2114       F  0.95699368  0.29970844  0.38421455    -0.19500
C2115       C  0.09248546  0.48477974  0.37270536    -0.20900
C2116       C  0.07614792  0.46302361  0.37734091    -0.08900
C2117       C  0.06769064  0.46066254  0.39089611     0.29900
C2118       C  0.07547114  0.47947949  0.39948795    -0.20900
C2119       C  0.09186451  0.50105599  0.39488358    -0.09000
C2120       C  0.10022749  0.50365363  0.38136652     0.29900
F2121       F  0.11624161  0.52435266  0.37668629    -0.19500
H2122       H  0.09927008  0.48720667  0.36235958     0.18300
H2123       H  0.06903577  0.47716488  0.40993018     0.18300
F2124       F  0.05263173  0.44009891  0.39618458    -0.19500
C2125       C  0.26455934  0.94171394  0.85128154    -0.20900
C2126       C  0.28756454  0.94875899  0.85268990    -0.08900
C2127       C  0.29306951  0.93401490  0.85922601     0.29900
C2128       C  0.27618846  0.91361559  0.86481481    -0.20900
C2129       C  0.25332850  0.90697713  0.86389667    -0.09000
C2130       C  0.24757712  0.92101993  0.85676622     0.29900
F2131       F  0.22570164  0.91533598  0.85560126    -0.19500
H2132       H  0.25961689  0.95246880  0.84628571     0.18300
H2133       H  0.28114456  0.90287939  0.86984101     0.18300
F2134       F  0.31470635  0.93892248  0.86019477    -0.19500
C2135       C  0.05950328  0.70438209  0.86233211    -0.20900
C2136       C  0.04391433  0.71040598  0.85804371    -0.08900
C2137       C  0.05088798  0.73347632  0.85773230     0.29900
C2138       C  0.07276360  0.74994832  0.86200699    -0.20900
C2139       C  0.08795760  0.74372290  0.86678031    -0.09000
C2140       C  0.08123137  0.72075977  0.86662761     0.29900
F2141       F  0.09575554  0.71408922  0.87047345    -0.19500
H2142       H  0.05486878  0.68685822  0.86240512     0.18300
H2143       H  0.07753068  0.76751584  0.86208524     0.18300
F2144       F  0.03628982  0.74009061  0.85400536    -0.19500
C2145       C  0.51214262  0.35092597  0.95000361    -0.20900
C2146       C  0.51480648  0.37006517  0.95670360    -0.08900
C2147       C  0.50949694  0.36884621  0.97078553     0.29900
C2148       C  0.50217639  0.34877056  0.97812329    -0.20900
C2149       C  0.50031865  0.32977698  0.97152857    -0.09000
C2150       C  0.50493372  0.33094727  0.95728327     0.29900
F2151       F  0.50226453  0.31275107  0.95028510    -0.19500
H2152       H  0.51605325  0.35162880  0.93912211     0.18300
H2153       H  0.49865267  0.34831073  0.98904336     0.18300
F2154       F  0.51176147  0.38716047  0.97743421    -0.19500
C2155       C  0.63736021  0.48171517  0.97817676    -0.20900
C2156       C  0.65711541  0.48515143  0.97176819    -0.08900
C2157       C  0.65734895  0.48286623  0.95731428     0.29900
C2158       C  0.63785422  0.47621803  0.94961292    -0.20900
C2159       C  0.61794578  0.47192331  0.95613542    -0.09000
C2160       C  0.61787640  0.47509194  0.97042887     0.29900
F2161       F  0.59874808  0.47112977  0.97689270    -0.19500
H2162       H  0.63674439  0.48340215  0.98924883     0.18300
H2163       H  0.63810967  0.47393659  0.93856733     0.18300
F2164       F  0.67636667  0.48717314  0.95055658    -0.19500
C2165       C  0.88598958  0.52424134  0.88253976    -0.20900
C2166       C  0.90871567  0.53799013  0.87853652    -0.08900
C2167       C  0.92444950  0.53209977  0.88292050     0.29900
C2168       C  0.91777326  0.51370357  0.89173356    -0.20900
C2169       C  0.89534280  0.50075608  0.89625577    -0.09000
C2170       C  0.87933961  0.50579208  0.89133231     0.29900
F2171       F  0.85738980  0.49312850  0.89530543    -0.19500
H2172       H  0.87348169  0.52821684  0.87926917     0.18300
H2173       H  0.93021693  0.50979036  0.89526799     0.18300
F2174       F  0.94628341  0.54398515  0.87865927    -0.19500
C2175       C  0.84389491  0.48018670  0.97226483    -0.20900
C2176       C  0.83965821  0.47475702  0.95822609    -0.08900
C2177       C  0.82307190  0.47710103  0.95145290     0.29900
C2178       C  0.81054580  0.48429712  0.95873393    -0.20900
C2179       C  0.81428219  0.48923883  0.97290330    -0.09000
C2180       C  0.83134742  0.48741437  0.97958959     0.29900
F2181       F  0.83514472  0.49141399  0.99331134    -0.19500
H2182       H  0.85653857  0.47824384  0.97760599     0.18300
H2183       H  0.79770394  0.48574230  0.95327181     0.18300
F2184       F  0.81849108  0.47167114  0.93789817    -0.19500
C2185       C  0.64400129  0.71133876  0.87243822    -0.20900
C2186       C  0.65096145  0.71263834  0.85868618    -0.08900
C2187       C  0.65426211  0.73096436  0.85057215     0.29900
C2188       C  0.64961457  0.74696252  0.85604187    -0.20900
C2189       C  0.64170814  0.74501748  0.86968106    -0.09000
C2190       C  0.63949120  0.72720584  0.87789906     0.29900
F2191       F  0.63335853  0.72512420  0.89135785    -0.19500
H2192       H  0.64202895  0.69791026  0.87912180     0.18300
H2193       H  0.65163778  0.76052338  0.84946705     0.18300
F2194       F  0.66100755  0.73292695  0.83723689    -0.19500
C2195       C  0.58947679  0.53712193  0.88579350    -0.20900
C2196       C  0.61026548  0.54258511  0.87980718    -0.08900
C2197       C  0.61900763  0.52855276  0.88253754     0.29900
C2198       C  0.60715861  0.50960655  0.89100200    -0.20900
C2199       C  0.58655921  0.50437076  0.89700173    -0.09000
C2200       C  0.57770937  0.51819178  0.89430770     0.29900
F2201       F  0.55790285  0.51357932  0.90011902    -0.19500
H2202       H  0.58220325  0.54743700  0.88386116     0.18300
H2203       H  0.61424944  0.49915675  0.89310672     0.18300
F2204       F  0.63936236  0.53346032  0.87751298    -0.19500
C2205       C  0.63312420  0.93551890  0.86700261    -0.20900
C2206       C  0.65351230  0.95001317  0.86011205    -0.08900
C2207       C  0.66870914  0.94252785  0.85775647     0.29900
C2208       C  0.66385300  0.92144443  0.86277602    -0.20900
C2209       C  0.64394151  0.90762013  0.87028073    -0.09000
C2210       C  0.62837162  0.91468766  0.87203741     0.29900
F2211       F  0.60826362  0.90134834  0.87844500    -0.19500
H2212       H  0.62060683  0.94021035  0.86856887     0.18300
H2213       H  0.67603969  0.91628723  0.86121564     0.18300
F2214       F  0.68860780  0.95578886  0.85114013    -0.19500
C2215       C  0.83016680  0.35126701  0.98172689    -0.20900
C2216       C  0.81453823  0.33157443  0.97459324    -0.08900
C2217       C  0.81186492  0.33282617  0.96027921     0.29900
C2218       C  0.82394896  0.35342609  0.95340387    -0.20900
C2219       C  0.83911270  0.37316979  0.96055334    -0.09000
C2220       C  0.84231812  0.37198813  0.97477797     0.29900
F2221       F  0.85708985  0.39082952  0.98190119    -0.19500
H2222       H  0.83253249  0.35072317  0.99273287     0.18300
H2223       H  0.82146840  0.35403063  0.94240974     0.18300
F2224       F  0.79789278  0.31408250  0.95281809    -0.19500
C2225       C  0.48476282  0.11334037  0.89080376    -0.20900
C2226       C  0.48963063  0.09687609  0.89495289    -0.08900
C2227       C  0.47681671  0.07496717  0.88963372     0.29900
C2228       C  0.45916669  0.06948738  0.88049275    -0.20900
C2229       C  0.45368808  0.08564604  0.87655206    -0.09000
C2230       C  0.46690643  0.10783542  0.88169490     0.29900
F2231       F  0.46215672  0.12398649  0.87842938    -0.19500
H2232       H  0.49454143  0.13034229  0.89487095     0.18300
H2233       H  0.44969787  0.05239706  0.87658484     0.18300
F2234       F  0.48107162  0.05870967  0.89355679    -0.19500
C2235       C  0.51298095  0.16492913  0.95161397    -0.20900
C2236       C  0.51545426  0.14842975  0.95832758    -0.08900
C2237       C  0.51093927  0.14485795  0.97253944     0.29900
C2238       C  0.50460777  0.15812632  0.97994211    -0.20900
C2239       C  0.50288817  0.17522890  0.97328741    -0.09000
C2240       C  0.50674302  0.17818597  0.95895311     0.29900
F2241       F  0.50420703  0.19366056  0.95191245    -0.19500
H2242       H  0.51636707  0.16784851  0.94065846     0.18300
H2243       H  0.50163625  0.15543051  0.99093557     0.18300
F2244       F  0.51305201  0.12884691  0.97925015    -0.19500
C2245       C  0.57706480  0.06825881  0.89199224    -0.20900
C2246       C  0.58737275  0.09056750  0.89677253    -0.08900
C2247       C  0.60923974  0.10650660  0.89216178     0.29900
C2248       C  0.62076863  0.10008993  0.88316333    -0.20900
C2249       C  0.61082305  0.07760929  0.87870211    -0.09000
C2250       C  0.58865335  0.06175380  0.88307734     0.29900
F2251       F  0.57802427  0.04004678  0.87860792    -0.19500
H2252       H  0.56010736  0.05583219  0.89530828     0.18300
H2253       H  0.63777635  0.11261085  0.88000634     0.18300
F2254       F  0.61951094  0.12825524  0.89650977    -0.19500
C2255       C  0.61710359  0.14233254  0.97219752    -0.20900
C2256       C  0.61624770  0.14788911  0.95838646    -0.08900
C2257       C  0.63557243  0.16586060  0.95226212     0.29900
C2258       C  0.65542833  0.17823042  0.95989072    -0.20900
C2259       C  0.65645921  0.17294496  0.97379516    -0.09000
C2260       C  0.63706851  0.15466817  0.97986569     0.29900
F2261       F  0.63703284  0.14927364  0.99331935    -0.19500
H2262       H  0.60217288  0.12866214  0.97707714     0.18300
H2263       H  0.67003069  0.19202245  0.95485220     0.18300
F2264       F  0.63500217  0.17179268  0.93898269    -0.19500
C2265       C  0.06252769  0.33910518  0.88532201    -0.20900
C2266       C  0.07717284  0.33665100  0.87644836    -0.08900
C2267       C  0.06997528  0.32916713  0.86284288     0.29900
C2268       C  0.04914821  0.32553856  0.85813637    -0.20900
C2269       C  0.03516757  0.32929842  0.86686163    -0.09000
C2270       C  0.04186940  0.33552465  0.88065822     0.29900
F2271       F  0.02845510  0.33800705  0.88980066    -0.19500
H2272       H  0.06707780  0.34401242  0.89598059     0.18300
H2273       H  0.04436457  0.32058100  0.84750140     0.18300
F2274       F  0.08336591  0.32635512  0.85386623    -0.19500
C2275       C  0.88773691  0.37042737  0.88286817    -0.20900
C2276       C  0.91094184  0.37834797  0.88157616    -0.08900
C2277       C  0.92657395  0.39772145  0.88904964     0.29900
C2278       C  0.91907315  0.40860645  0.89770906    -0.20900
C2279       C  0.89598338  0.40045300  0.89910431    -0.09000
C2280       C  0.88027368  0.38132100  0.89163076     0.29900
F2281       F  0.85779184  0.37320464  0.89286994    -0.19500
H2282       H  0.87532620  0.35553603  0.87732235     0.18300
H2283       H  0.93130412  0.42345138  0.90338524     0.18300
F2284       F  0.94916089  0.40656091  0.88780581    -0.19500
C2285       C  0.27172046  0.33299417  0.87715705    -0.20900
C2286       C  0.27262464  0.33057090  0.86282851    -0.08900
C2287       C  0.25583887  0.33028992  0.85448573     0.29900
C2288       C  0.23925604  0.33361349  0.86040719    -0.20900
C2289       C  0.23917586  0.33724548  0.87469272    -0.09000
C2290       C  0.25521935  0.33619479  0.88305263     0.29900
F2291       F  0.25498660  0.33811578  0.89697661    -0.19500
H2292       H  0.28396433  0.33254249  0.88389350     0.18300
H2293       H  0.22705032  0.33425305  0.85373506     0.18300
F2294       F  0.25613646  0.32805462  0.84059153    -0.19500
C2295       C  0.45889839  0.36744830  0.88339046    -0.20900
C2296       C  0.44625056  0.37720886  0.87959732    -0.08900
C2297       C  0.45325987  0.39920664  0.88412350     0.29900
C2298       C  0.47208510  0.41081537  0.89270965    -0.20900
C2299       C  0.48423622  0.40074200  0.89686972    -0.09000
C2300       C  0.47772662  0.37907506  0.89199151     0.29900
F2301       F  0.48936920  0.36905848  0.89577235    -0.19500
H2302       H  0.45382832  0.35055679  0.88001547     0.18300
H2303       H  0.47708457  0.42761094  0.89625931     0.18300
F2304       F  0.44214710  0.40964054  0.88009187    -0.19500
C2305       C  0.37399731  0.14353051  0.78005218    -0.20900
C2306       C  0.35318009  0.14133582  0.77667208    -0.08900
C2307       C  0.33346009  0.12442690  0.78327819     0.29900
C2308       C  0.33474838  0.11035132  0.79313261    -0.20900
C2309       C  0.35563676  0.11289071  0.79666065    -0.09000
C2310       C  0.37527055  0.12949293  0.78987754     0.29900
F2311       F  0.39567374  0.13182503  0.79240327    -0.19500
H2312       H  0.38943316  0.15608564  0.77500463     0.18300
H2313       H  0.31939722  0.09772540  0.79821706     0.18300
F2314       F  0.31296008  0.12163659  0.78041508    -0.19500
C2315       C  0.33034012  0.22350603  0.78143150    -0.20900
C2316       C  0.35078466  0.22542256  0.77732273    -0.08900
C2317       C  0.37099344  0.24223509  0.78351858     0.29900
C2318       C  0.37070825  0.25688730  0.79330092    -0.20900
C2319       C  0.35035710  0.25518832  0.79736209    -0.09000
C2320       C  0.33004613  0.23813334  0.79134475     0.29900
F2321       F  0.30980940  0.23512526  0.79518256    -0.19500
H2322       H  0.31447573  0.21065072  0.77695385     0.02100
H2323       H  0.38669645  0.26977171  0.79758712     0.18300
F2324       F  0.39119334  0.24462233  0.78021351    -0.19500
C2325       C  0.75167440  0.14016061  0.78166522    -0.20900
C2326       C  0.76991412  0.13800655  0.77742008    -0.08900
C2327       C  0.77266943  0.12120051  0.78368733     0.29900
C2328       C  0.75776085  0.10736430  0.79409918    -0.20900
C2329       C  0.73980791  0.10991997  0.79851518    -0.09000
C2330       C  0.73680484  0.12635483  0.79199132     0.29900
F2331       F  0.71913653  0.12882252  0.79525190    -0.19500
H2332       H  0.74878326  0.15262771  0.77695684     0.18300
H2333       H  0.76052607  0.09485381  0.79885829     0.18300
F2334       F  0.78984086  0.11821175  0.77990609    -0.19500
C2335       C  0.85436790  0.24502739  0.78112862    -0.20900
C2336       C  0.85520186  0.22560069  0.77817789    -0.08900
C2337       C  0.87047687  0.22184180  0.78558458     0.29900
C2338       C  0.88441416  0.23717681  0.79571998    -0.20900
C2339       C  0.88341143  0.25650199  0.79873278    -0.09000
C2340       C  0.86828925  0.26033793  0.79122362     0.29900
F2341       F  0.86731205  0.27919152  0.79327996    -0.19500
H2342       H  0.84303832  0.24858047  0.77549410     0.18300
H2343       H  0.89575274  0.23367713  0.80137707     0.18300
F2344       F  0.87175138  0.20320675  0.78324101    -0.19500
C2345       C  0.74632598  0.61714464  0.78216293    -0.20900
C2346       C  0.76513311  0.63793974  0.77809541    -0.08900
C2347       C  0.76785483  0.65789653  0.78386935     0.29900
C2348       C  0.75216657  0.65692373  0.79343273    -0.20900
C2349       C  0.73347606  0.63613044  0.79754714    -0.09000
C2350       C  0.73067897  0.61617358  0.79172849     0.29900
F2351       F  0.71250292  0.59567331  0.79490728    -0.19500
H2352       H  0.74354667  0.60147318  0.77784928     0.18300
H2353       H  0.75488074  0.67254408  0.79777699     0.18300
F2354       F  0.78570093  0.67842150  0.78037014    -0.19500
C2355       C  0.86797930  0.65894618  0.78604888    -0.20900
C2356       C  0.85063320  0.63857092  0.78031894    -0.08900
C2357       C  0.84749707  0.61813259  0.78554349     0.29900
C2358       C  0.86134199  0.61820153  0.79610107    -0.20900
C2359       C  0.87878708  0.63852632  0.80176809    -0.09000
C2360       C  0.88190234  0.65899714  0.79661947     0.29900
F2361       F  0.89800754  0.67910184  0.80196085    -0.19500
H2362       H  0.87078817  0.67496993  0.78237275     0.18300
H2363       H  0.85853824  0.60213945  0.79966445     0.18300
F2364       F  0.83115625  0.59792862  0.78042827    -0.19500
C2365       C  0.73650581  0.61888128  0.70209273    -0.20900
C2366       C  0.73762479  0.63904558  0.69819846    -0.08900
C2367       C  0.75424981  0.65931302  0.70452468     0.29900
C2368       C  0.76896626  0.65916877  0.71445145    -0.20900
C2369       C  0.76764848  0.63894870  0.71836139    -0.09000
C2370       C  0.75123062  0.61876053  0.71195556     0.29900
F2371       F  0.74930554  0.59874850  0.71514362    -0.19500
H2372       H  0.72404430  0.60289287  0.69761814     0.18300
H2373       H  0.78141277  0.67502141  0.71913401     0.18300
F2374       F  0.75670768  0.67943612  0.70108691    -0.19500
C2375       C  0.66336360  0.73365833  0.64005065    -0.20900
C2376       C  0.66383591  0.71784860  0.63118795    -0.08900
C2377       C  0.66107807  0.71945062  0.61692007     0.29900
C2378       C  0.65678808  0.73570769  0.61177731    -0.20900
C2379       C  0.65530492  0.75093125  0.62065074    -0.09000
C2380       C  0.65907686  0.75003489  0.63487096     0.29900
F2381       F  0.65746736  0.76413342  0.64387717    -0.19500
H2382       H  0.66538607  0.73275456  0.65106700     0.18300
H2383       H  0.65459062  0.73632291  0.60075895     0.18300
F2384       F  0.66271887  0.70542037  0.60785310    -0.19500
C2385       C  0.77747252  0.12511700  0.70993283    -0.20900
C2386       C  0.77205577  0.13945279  0.71700763    -0.08900
C2387       C  0.75195853  0.13880672  0.71352318     0.29900
C2388       C  0.73783501  0.12430724  0.70320476    -0.20900
C2389       C  0.74321156  0.11000249  0.69612440    -0.09000
C2390       C  0.76322499  0.11050783  0.69959902     0.29900
F2391       F  0.76941707  0.09743624  0.69277901    -0.19500
H2392       H  0.79287377  0.12532260  0.71231535     0.18300
H2393       H  0.72240324  0.12408078  0.70090977     0.18300
F2394       F  0.74562423  0.15188917  0.72020415    -0.19500
C2395       C  0.66483622  0.91978875  0.63282291    -0.20900
C2396       C  0.66020695  0.91526974  0.61864596    -0.08900
C2397       C  0.66019797  0.93193467  0.61029444     0.29900
C2398       C  0.66279691  0.95155159  0.61616316    -0.20900
C2399       C  0.66617619  0.95550587  0.63039620    -0.09000
C2400       C  0.66799330  0.93980456  0.63865292     0.29900
F2401       F  0.67162714  0.94318096  0.65243547    -0.19500
H2402       H  0.66524281  0.90750477  0.63952282     0.18300
H2403       H  0.66216746  0.96376149  0.60949299     0.18300
F2404       F  0.65789192  0.92954676  0.59639899    -0.19500
C2405       C  0.82140101  0.34953975  0.54338669    -0.20900
C2406       C  0.83395618  0.37025672  0.53650886    -0.08900
C2407       C  0.83629412  0.37040318  0.52209000     0.29900
C2408       C  0.82577445  0.35006909  0.51469501    -0.20900
C2409       C  0.81280794  0.32935085  0.52158075    -0.09000
C2410       C  0.81116508  0.32928212  0.53607216     0.29900
F2411       F  0.79999113  0.30964169  0.54325291    -0.19500
H2412       H  0.81962899  0.34909489  0.55450960     0.18300
H2413       H  0.82728416  0.35057201  0.50356317     0.18300
F2414       F  0.84862805  0.39019537  0.51519396    -0.19500
C2415       C  0.80137187  0.47702653  0.53360259    -0.20900
C2416       C  0.80948758  0.48631611  0.52044682    -0.08900
C2417       C  0.82954091  0.48805595  0.51559342     0.29900
C2418       C  0.84071424  0.47999817  0.52365030    -0.20900
C2419       C  0.83219541  0.47042554  0.53664407    -0.09000
C2420       C  0.81260292  0.46920469  0.54162888     0.29900
F2421       F  0.80416082  0.46008051  0.55420252    -0.19500
H2422       H  0.78627017  0.47581543  0.53777481     0.18300
H2423       H  0.85587826  0.48100977  0.51972846     0.18300
F2424       F  0.83791552  0.49674526  0.50293975    -0.19500
C2425       C  0.58016894  0.51741538  0.60219590    -0.20900
C2426       C  0.59084829  0.50573225  0.59821807    -0.08900
C2427       C  0.61227939  0.51241616  0.60360591     0.29900
C2428       C  0.62290172  0.53066416  0.61274261    -0.20900
C2429       C  0.61247429  0.54272178  0.61650179    -0.09000
C2430       C  0.59087903  0.53582548  0.61120413     0.29900
F2431       F  0.57991922  0.54656701  0.61492887    -0.19500
H2432       H  0.56353218  0.51228318  0.59824382     0.18300
H2433       H  0.63955458  0.53572380  0.61661720     0.18300
F2434       F  0.62291778  0.50131300  0.59998455    -0.19500
C2435       C  0.63756114  0.47732289  0.54287372    -0.20900
C2436       C  0.61844763  0.47552161  0.53662170    -0.08900
C2437       C  0.61937397  0.48142423  0.52267386     0.29900
C2438       C  0.63914157  0.48858151  0.51502669    -0.20900
C2439       C  0.65805988  0.48958479  0.52114869    -0.09000
C2440       C  0.65720424  0.48425410  0.53525471     0.29900
F2441       F  0.67536665  0.48590767  0.54176896    -0.19500
H2442       H  0.63705694  0.47287896  0.55364140     0.18300
H2443       H  0.63939694  0.49260406  0.50420712     0.18300
F2444       F  0.60103861  0.47981297  0.51642941    -0.19500
C2445       C  0.50228842  0.33205511  0.53913190    -0.20900
C2446       C  0.49803822  0.33030521  0.52486810    -0.08900
C2447       C  0.50228157  0.34971925  0.51753865     0.29900
C2448       C  0.51101738  0.37041980  0.52439543    -0.20900
C2449       C  0.51565394  0.37205253  0.53858095    -0.09000
C2450       C  0.51113667  0.35267381  0.54590377     0.29900
F2451       F  0.51570765  0.35381482  0.55960327    -0.19500
H2452       H  0.49895273  0.31745193  0.54511888     0.18300
H2453       H  0.51450208  0.38528044  0.51862315     0.18300
F2454       F  0.49892349  0.34903216  0.50371722    -0.19500
C2455       C  0.61328846  0.11204644  0.60782591    -0.20900
C2456       C  0.59352920  0.09631010  0.60089188    -0.08900
C2457       C  0.58527495  0.07321340  0.60248701     0.29900
C2458       C  0.59686346  0.06594094  0.61072626    -0.20900
C2459       C  0.61695103  0.08156474  0.61755332    -0.09000
C2460       C  0.62493314  0.10482879  0.61612982     0.29900
F2461       F  0.64440796  0.12071649  0.62223059    -0.19500
H2462       H  0.61989745  0.12995181  0.60658180     0.18300
H2463       H  0.59007392  0.04798208  0.61168836     0.18300
F2464       F  0.56626767  0.05772365  0.59576933    -0.19500
C2465       C  0.61726724  0.14395818  0.52272033    -0.20900
C2466       C  0.61870260  0.14801535  0.53700892    -0.08900
C2467       C  0.63971276  0.16345044  0.54285331     0.29900
C2468       C  0.65879640  0.17494387  0.53455121    -0.20900
C2469       C  0.65740949  0.17169450  0.52018021    -0.09000
C2470       C  0.63648606  0.15569047  0.51431944     0.29900
F2471       F  0.63430665  0.15219320  0.50048746    -0.19500
H2472       H  0.60112159  0.13216954  0.51805878     0.18300
H2473       H  0.67468378  0.18676419  0.53944766     0.18300
F2474       F  0.64162723  0.16803686  0.55657511    -0.19500
C2475       C  0.51741120  0.16803407  0.54716965    -0.20900
C2476       C  0.51920698  0.15133821  0.54019135    -0.08900
C2477       C  0.51275811  0.14697320  0.52626765     0.29900
C2478       C  0.50488157  0.15944574  0.51943305    -0.20900
C2479       C  0.50332827  0.17649574  0.52635980    -0.09000
C2480       C  0.50950696  0.18042450  0.54043709     0.29900
F2481       F  0.50755139  0.19584938  0.54793635    -0.19500
H2482       H  0.52226252  0.17153124  0.55792779     0.18300
H2483       H  0.50030278  0.15592160  0.50865704     0.18300
F2484       F  0.51410290  0.13069222  0.51931611    -0.19500
C2485       C  0.37548858  0.13058385  0.70293543    -0.20900
C2486       C  0.35581491  0.11008992  0.69937962    -0.08900
C2487       C  0.33507780  0.10550069  0.70515209     0.29900
C2488       C  0.33433150  0.12092817  0.71420032    -0.20900
C2489       C  0.35409061  0.14127332  0.71777427    -0.09000
C2490       C  0.37471580  0.14596072  0.71192269     0.29900
F2491       F  0.39432042  0.16543067  0.71484768    -0.19500
H2492       H  0.39179760  0.13489512  0.69887852     0.18300
H2493       H  0.31818457  0.11676888  0.71853222     0.18300
F2494       F  0.31536771  0.08629351  0.70210067    -0.19500
C2495       C  0.28039691  0.94743245  0.62315520    -0.20900
C2496       C  0.28135797  0.95129067  0.63740264    -0.08900
C2497       C  0.26446316  0.93467711  0.64591533     0.29900
C2498       C  0.24736650  0.91426185  0.64020691    -0.20900
C2499       C  0.24676031  0.91016897  0.62593186    -0.09000
C2500       C  0.26328256  0.92731663  0.61743302     0.29900
F2501       F  0.26286320  0.92503938  0.60352089    -0.19500
H2502       H  0.29290910  0.96018430  0.61633766     0.18300
H2503       H  0.23497442  0.90144659  0.64703075     0.18300
F2504       F  0.26504216  0.93770317  0.65977605    -0.19500
C2505       C  0.46900251  0.10485287  0.61695116    -0.20900
C2506       C  0.45616677  0.08214424  0.62110330    -0.08900
C2507       C  0.46254885  0.06696534  0.61641314     0.29900
C2508       C  0.48082741  0.07422274  0.60738384    -0.20900
C2509       C  0.49304641  0.09666963  0.60282030    -0.09000
C2510       C  0.48722838  0.11206384  0.60783122     0.29900
F2511       F  0.49900042  0.13396937  0.60372857    -0.19500
H2512       H  0.46448529  0.11687157  0.62042126     0.18300
H2513       H  0.48528112  0.06222377  0.60376044     0.18300
F2514       F  0.45129506  0.04513891  0.62067039    -0.19500
C2515       C  0.86561801  0.61768462  0.70553118    -0.20900
C2516       C  0.88119034  0.63739184  0.69843431    -0.08900
C2517       C  0.88280037  0.65788832  0.70210329     0.29900
C2518       C  0.86887271  0.65839946  0.71248587    -0.20900
C2519       C  0.85303935  0.63855444  0.71944518    -0.09000
C2520       C  0.85178334  0.61817487  0.71589069     0.29900
F2521       F  0.83722643  0.59857068  0.72243015    -0.19500
H2522       H  0.86418020  0.60172250  0.70312310     0.18300
H2523       H  0.87023376  0.67432840  0.71490633     0.18300
F2524       F  0.89715346  0.67730461  0.69533259    -0.19500
C2525       C  0.04468514  0.71177740  0.62076527    -0.20900
C2526       C  0.03840229  0.71099232  0.63460636    -0.08900
C2527       C  0.05405652  0.72730068  0.64383759     0.29900
C2528       C  0.07586378  0.74349437  0.63931092    -0.20900
C2529       C  0.08234587  0.74375533  0.62552035    -0.09000
C2530       C  0.06622962  0.72801120  0.61620991     0.29900
F2531       F  0.07095709  0.72847586  0.60258559    -0.19500
H2532       H  0.03278316  0.69979732  0.61336220     0.18300
H2533       H  0.08786108  0.75543357  0.64668665     0.18300
F2534       F  0.04869803  0.72697016  0.65733617    -0.19500
C2535       C  0.88151199  0.52335260  0.61413951    -0.20900
C2536       C  0.90474512  0.53778726  0.61674866    -0.08900
C2537       C  0.92011992  0.53267655  0.61064423     0.29900
C2538       C  0.91241142  0.51409422  0.60185983    -0.20900
C2539       C  0.88934003  0.50018275  0.59899642    -0.09000
C2540       C  0.87385223  0.50473184  0.60532957     0.29900
F2541       F  0.85136791  0.49125749  0.60288155    -0.19500
H2542       H  0.86925619  0.52674381  0.61865508     0.18300
H2543       H  0.92450913  0.51062392  0.59715516     0.18300
F2544       F  0.94260414  0.54531811  0.61327003    -0.19500
C2545       C  0.88802344  0.24121273  0.70179635    -0.20900
C2546       C  0.88437667  0.25841766  0.69734638    -0.08900
C2547       C  0.86701957  0.26020293  0.70366484     0.29900
C2548       C  0.85342619  0.24485933  0.71385446    -0.20900
C2549       C  0.85673407  0.22737837  0.71813908    -0.09000
C2550       C  0.87442485  0.22585994  0.71206453     0.29900
F2551       F  0.87853254  0.20946871  0.71589918    -0.19500
H2552       H  0.90122337  0.23936079  0.69717685     0.18300
H2553       H  0.84022653  0.24677694  0.71842609     0.18300
F2554       F  0.86339111  0.27708949  0.70033076    -0.19500
C2555       C  0.05994567  0.36807767  0.63054499    -0.20900
C2556       C  0.04408053  0.34703358  0.63623783    -0.08900
C2557       C  0.05021360  0.33062349  0.63773294     0.29900
C2558       C  0.07151306  0.33516407  0.63331969    -0.20900
C2559       C  0.08696709  0.35596852  0.62721428    -0.09000
C2560       C  0.08107893  0.37254835  0.62611062     0.29900
F2561       F  0.09587690  0.39331643  0.62093357    -0.19500
H2562       H  0.05610921  0.38130599  0.62954509     0.18300
H2563       H  0.07559486  0.32208403  0.63421869     0.18300
F2564       F  0.03541345  0.30986308  0.64288160    -0.19500
C2565       C  0.92399744  0.40225889  0.61038366    -0.20900
C2566       C  0.90920272  0.37996197  0.61482762    -0.08900
C2567       C  0.88658436  0.36861236  0.61030243     0.29900
C2568       C  0.87899569  0.37952680  0.60169115    -0.20900
C2569       C  0.89379984  0.40179501  0.59732465    -0.09000
C2570       C  0.91639685  0.41310836  0.60171886     0.29900
F2571       F  0.93113864  0.43453268  0.59747063    -0.19500
H2572       H  0.94147798  0.41138855  0.61368696     0.18300
H2573       H  0.86157462  0.37050608  0.59824838     0.18300
F2574       F  0.87200057  0.34671944  0.61371436    -0.19500
C2575       C  0.37226970  0.26250140  0.70498631    -0.20900
C2576       C  0.35249730  0.25713405  0.69775726    -0.08900
C2577       C  0.33251925  0.23647700  0.70058594     0.29900
C2578       C  0.33245626  0.22165203  0.71045074    -0.20900
C2579       C  0.35228270  0.22699277  0.71763928    -0.09000
C2580       C  0.37225135  0.24770936  0.71479822     0.29900
F2581       F  0.39179961  0.25392528  0.72158255    -0.19500
H2582       H  0.38785688  0.27834148  0.70313236     0.18300
H2583       H  0.31688567  0.20579734  0.71232138     0.18300
F2584       F  0.31323194  0.23013212  0.69348464    -0.19500
C2585       C  0.25637831  0.33948535  0.61213759    -0.20900
C2586       C  0.24095276  0.33951830  0.62159685    -0.08900
C2587       C  0.24160496  0.33336795  0.63538948     0.29900
C2588       C  0.25785892  0.32821177  0.63958663    -0.20900
C2589       C  0.27391874  0.32935239  0.63020993    -0.09000
C2590       C  0.27265694  0.33456483  0.61634150     0.29900
F2591       F  0.28707492  0.33480083  0.60674207    -0.19500
H2592       H  0.25604360  0.34340860  0.60137176     0.18300
H2593       H  0.25848528  0.32427512  0.65032855     0.18300
F2594       F  0.22735886  0.33333879  0.64500910    -0.19500
C2595       C  0.45702500  0.40229502  0.61147812    -0.20900
C2596       C  0.45066089  0.38100333  0.61694332    -0.08900
C2597       C  0.46364390  0.37129764  0.61368114     0.29900
C2598       C  0.48229041  0.38253563  0.60488554    -0.20900
C2599       C  0.48836971  0.40362344  0.59929673    -0.09000
C2600       C  0.47582148  0.41361313  0.60280332     0.29900
F2601       F  0.48148260  0.43406932  0.59757068    -0.19500
H2602       H  0.44738265  0.41016028  0.61390226     0.18300
H2603       H  0.49181743  0.37463615  0.60222009     0.18300
F2604       F  0.45773245  0.35050783  0.61841872    -0.19500
loop_ 
_geom_bond_atom_site_label_1 
_geom_bond_atom_site_label_2 
_geom_bond_distance 
_geom_bond_site_symmetry_2 
_ccdc_geom_bond_type 
N1            N2   1.322       .  A
N1            C5   1.350       .  A
N1           Cu9   2.093       .  S
N2            C3   1.341       .  A
N2           Cu8   2.068       .  S
C3            C4   1.383       .  A
C3            H6   1.081       .  S
C4            C5   1.390       .  A
C4         C2589   1.485       .  S
C5            H7   1.082       .  S
Cu8          N11   2.067       .  S
Cu9          N19   2.093       .  S
Cu10         N12   2.071       .  S
Cu10         N18   2.072       .  S
N11          N12   1.320       .  A
N11          C15   1.344       .  A
N12          C13   1.345       .  A
C13          C14   1.387       .  A
C13          H16   1.082       .  S
C14          C15   1.385       .  A
C14        C2596   1.480       .  S
C15          H17   1.082       .  S
N18          N19   1.323       .  A
N18          C22   1.343       .  A
N19          C20   1.348       .  A
C20          C21   1.390       .  A
C20          H23   1.081       .  S
C21          C22   1.384       .  A
C21        C2576   1.486       .  S
C22          H24   1.082       .  S
N25          N26   1.321       .  A
N25          C29   1.348   1_655  A
N25         Cu33   2.085       .  S
N26          C27   1.343   1_655  A
N26         Cu32   2.070       .  S
C27          C28   1.387       .  A
C27          H30   1.082       .  S
C28          C29   1.391       .  A
C28        C2556   1.490       .  S
C29          H31   1.081       .  S
Cu32         N35   2.069       .  S
Cu33         N43   2.086       .  S
Cu34         N36   2.080       .  S
Cu34         N42   2.081       .  S
N35          N36   1.321       .  A
N35          C39   1.344       .  A
N36          C37   1.346       .  A
C37          C38   1.389       .  A
C37          H40   1.081       .  S
C38          C39   1.385       .  A
C38        C2566   1.483       .  S
C39          H41   1.082       .  S
N42          N43   1.323       .  A
N42          C46   1.344       .  A
N43          C44   1.347       .  A
C44          C45   1.389       .  A
C44          H47   1.082       .  S
C45          C46   1.388       .  A
C45        C2546   1.491       .  S
C46          H48   1.081       .  S
N49          N50   1.322       .  A
N49          C53   1.351       .  A
N49         Cu57   2.102       .  S
N50          C51   1.340       .  A
N50         Cu56   2.066       .  S
C51          C52   1.385       .  A
C51          H54   1.081       .  S
C52          C53   1.395       .  A
C52        C2586   1.493       .  S
C53          H55   1.081       .  S
Cu56         N59   2.065       .  S
Cu57         N67   2.102       .  S
Cu58         N60   2.066       .  S
Cu58         N66   2.066       .  S
N59          N60   1.319       .  A
N59          C63   1.344       .  A
N60          C61   1.346       .  A
C61          C62   1.384       .  A
C61          H64   1.082       .  S
C62          C63   1.383       .  A
C62        C1137   1.471       .  S
C63          H65   1.082       .  S
N66          N67   1.324       .  A
N66          C70   1.340       .  A
N67          C68   1.352       .  A
C68          C69   1.391       .  A
C68          H71   1.082       .  S
C69          C70   1.381       .  A
C69        C2559   1.485       .  S
C70          H72   1.082       .  S
N73          N74   1.321       .  A
N73          C77   1.350   1_655  A
N73         Cu81   2.090       .  S
N74          C75   1.341   1_655  A
N74         Cu80   2.061       .  S
C75          C76   1.383       .  A
C75          H78   1.082       .  S
C76          C77   1.390       .  A
C76        C2526   1.482       .  S
C77          H79   1.082       .  S
Cu80         N83   2.061       .  S
Cu81         N91   2.092       .  S
Cu82         N84   2.095       .  S
Cu82         N90   2.096       .  S
N83          N84   1.320       .  A
N83          C87   1.342       .  A
N84          C85   1.350       .  A
C85          C86   1.393       .  A
C85          H88   1.082       .  S
C86          C87   1.385       .  A
C86        C2536   1.490       .  S
C87          H89   1.081       .  S
N90          N91   1.325       .  A
N90          C94   1.347       .  A
N91          C92   1.349       .  A
C92          C93   1.389       .  A
C92          H95   1.081       .  S
C93          C94   1.389       .  A
C93        C2516   1.492       .  S
C94          H96   1.082       .  S
N97          N98   1.322       .  A
N97         C101   1.350   1_545  A
N97        Cu105   2.085       .  S
N98          C99   1.340   1_545  A
N98        Cu104   2.064       .  S
C99         C100   1.381       .  A
C99         H102   1.082       .  S
C100        C101   1.388       .  A
C100       C2496   1.479       .  S
C101        H103   1.082       .  S
Cu104       N107   2.064       .  S
Cu105       N115   2.087       .  S
Cu106       N108   2.091       .  S
Cu106       N114   2.092       .  S
N107        N108   1.320       .  A
N107        C111   1.343       .  A
N108        C109   1.350       .  A
C109        C110   1.391       .  A
C109        H112   1.082       .  S
C110        C111   1.384       .  A
C110       C2506   1.486       .  S
C111        H113   1.082       .  S
N114        N115   1.323       .  A
N114        C118   1.344       .  A
N115        C116   1.348       .  A
C116        C117   1.393       .  A
C116        H119   1.079       .  S
C117        C118   1.391       .  A
C117       C2486   1.499       .  S
C118        H120   1.080       .  S
N121        N122   1.322       .  A
N121        C125   1.349       .  A
N121       Cu129   2.091       .  S
N122        C123   1.340       .  A
N122       Cu128   2.065       .  S
C123        C124   1.385       .  A
C123        H126   1.080       .  S
C124        C125   1.391       .  A
C124       C2499   1.488       .  S
C125        H127   1.082       .  S
Cu128       N131   2.064       .  S
Cu129       N139   2.091       .  S
Cu130       N132   2.065       .  S
Cu130       N138   2.066       .  S
N131        N132   1.319       .  A
N131        C135   1.344       .  A
N132        C133   1.345       .  A
C133        C134   1.384       .  A
C133        H136   1.082       .  S
C134        C135   1.383       .  A
C134       C1079   1.471       .  S
C135        H137   1.082       .  S
N138        N139   1.323       .  A
N138        C142   1.339       .  A
N139        C140   1.350       .  A
C140        C141   1.390       .  A
C140        H143   1.082       .  S
C141        C142   1.383       .  A
C141       C2529   1.486       .  S
C142        H144   1.081       .  S
N145        C150   1.354       .  A
N145        C149   1.355       .  A
N145        H177   1.041       .  S
N146        C153   1.351       .  A
N146        C154   1.353       .  A
N147        C152   1.353       .  A
N147        C151   1.354       .  A
N147        H178   1.039       .  S
N148        C155   1.352       .  A
N148        C156   1.352       .  A
C149        C157   1.387       .  A
C149        C165   1.415       .  A
C150        C166   1.416       .  A
C150        C158   1.387       .  A
C151        C159   1.387       .  A
C151        C168   1.416       .  A
C152        C167   1.414       .  A
C152        C160   1.387       .  A
C153        C165   1.412       .  A
C153        C161   1.385       .  A
C154        C168   1.416       .  A
C154        C162   1.387       .  A
C155        C163   1.386       .  A
C155        C166   1.413       .  A
C156        C164   1.386       .  A
C156        C167   1.413       .  A
C157        C158   1.374       .  A
C157        H169   1.082       .  S
C158        H170   1.082       .  S
C159        C160   1.377       .  A
C159        H171   1.082       .  S
C160        H172   1.082       .  S
C161        C162   1.373       .  A
C161        H173   1.082       .  S
C162        H174   1.082       .  S
C163        C164   1.372       .  A
C163        H175   1.082       .  S
C164        H176   1.082       .  S
C165       C2476   1.489       .  S
C166       C2466   1.488       .  S
C167       C2456   1.485       .  S
C168       C2509   1.491       .  S
N179        N180   1.319       .  A
N179        C183   1.347       .  A
N179       Cu187   2.070       .  S
N180        C181   1.339       .  A
N180       Cu186   2.059       .  S
C181        C182   1.385       .  A
C181        H184   1.081       .  S
C182        C183   1.389       .  A
C182       C2446   1.483       .  S
C183        H185   1.081       .  S
Cu186       N189   2.060       .  S
Cu187       N197   2.071       .  S
Cu188       N190   2.096       .  S
Cu188       N196   2.098       .  S
N189        N190   1.320       .  A
N189        C193   1.341       .  A
N190        C191   1.350       .  A
C191        C192   1.395       .  A
C191        H194   1.081       .  S
C192        C193   1.387       .  A
C192       C2479   1.493       .  S
C193        H195   1.080       .  S
N196        N197   1.325       .  A
N196        C200   1.348       .  A
N197        C198   1.344       .  A
C198        C199   1.380       .  A
C198        H201   1.082       .  S
C199        C200   1.386       .  A
C199        C956   1.474       .  S
C200        H202   1.082       .  S
N203        C208   1.354       .  A
N203        C207   1.353       .  A
N203        H235   1.039       .  S
N204        C211   1.351       .  A
N204        C212   1.353       .  A
N205        C210   1.353       .  A
N205        C209   1.353       .  A
N205        H236   1.039       .  S
N206        C213   1.350       .  A
N206        C214   1.351       .  A
C207        C215   1.388       .  A
C207        C223   1.415       .  A
C208        C224   1.416       .  A
C208        C216   1.387       .  A
C209        C217   1.387       .  A
C209        C226   1.414       .  A
C210        C225   1.413       .  A
C210        C218   1.386       .  A
C211        C223   1.412       .  A
C211        C219   1.386       .  A
C212        C226   1.414       .  A
C212        C220   1.386       .  A
C213        C221   1.386       .  A
C213        C224   1.411       .  A
C214        C222   1.386       .  A
C214        C225   1.412       .  A
C215        C216   1.374       .  A
C215        H227   1.082       .  S
C216        H228   1.082       .  S
C217        C218   1.375       .  A
C217        H229   1.082       .  S
C218        H230   1.082       .  S
C219        C220   1.373       .  A
C219        H231   1.082       .  S
C220        H232   1.082       .  S
C221        C222   1.371       .  A
C221        H233   1.082       .  S
C222        H234   1.082       .  S
C223       C2436   1.484       .  S
C224       C2449   1.486       .  S
C225       C2599   1.485       .  S
C226       C2426   1.488       .  S
N237        N238   1.319       .  A
N237        C241   1.348       .  A
N237       Cu245   2.080       .  S
N238        C239   1.340       .  A
N238       Cu244   2.052       .  S
C239        C240   1.382       .  A
C239        H242   1.081       .  S
C240        C241   1.389       .  A
C240       C2439   1.480       .  S
C241        H243   1.082       .  S
Cu244       N247   2.051       .  S
Cu245       N255   2.082       .  S
Cu246       N248   2.082       .  S
Cu246       N254   2.084       .  S
N247        N248   1.320       .  A
N247        C251   1.338       .  A
N248        C249   1.349       .  A
C249        C250   1.391       .  A
C249        H252   1.081       .  S
C250        C251   1.382       .  A
C250       C2416   1.483       .  S
C251        H253   1.082       .  S
N254        N255   1.325       .  A
N254        C258   1.346       .  A
N255        C256   1.345       .  A
C256        C257   1.382       .  A
C256        H259   1.082       .  S
C257        C258   1.383       .  A
C257       C1202   1.472       .  S
C258        H260   1.082       .  S
N261        N262   1.319       .  A
N261        C265   1.350       .  A
N261       Cu269   2.085       .  S
N262        C263   1.338       .  A
N262       Cu268   2.044       .  S
C263        C264   1.381       .  A
C263        H266   1.081       .  S
C264        C265   1.392       .  A
C264       C2409   1.480       .  S
C265        H267   1.082       .  S
Cu268       N271   2.044       .  S
Cu269       N279   2.088       .  S
Cu270       N272   2.084       .  S
Cu270       N278   2.087       .  S
N271        N272   1.318       .  A
N271        C275   1.336       .  A
N272        C273   1.351       .  A
C273        C274   1.393       .  A
C273        H276   1.081       .  S
C274        C275   1.381       .  A
C274       C2469   1.483       .  S
C275        H277   1.082       .  S
N278        N279   1.327       .  A
N278        C282   1.345       .  A
N279        C280   1.347       .  A
C280        C281   1.383       .  A
C280        H283   1.082       .  S
C281        C282   1.382       .  A
C281        C884   1.473       .  S
C282        H284   1.082       .  S
N285        C290   1.352       .  A
N285        C289   1.354       .  A
N285        H317   1.040       .  S
N286        C293   1.351       .  A
N286        C294   1.351       .  A
N287        C292   1.354       .  A
N287        C291   1.353       .  A
N287        H318   1.039       .  S
N288        C295   1.351       .  A
N288        C296   1.352       .  A
C289        C297   1.387       .  A
C289        C305   1.415       .  A
C290        C306   1.413       .  A
C290        C298   1.387       .  A
C291        C299   1.387       .  A
C291        C308   1.416       .  A
C292        C307   1.415       .  A
C292        C300   1.387       .  A
C293        C305   1.412       .  A
C293        C301   1.386       .  A
C294        C308   1.412       .  A
C294        C302   1.386       .  A
C295        C303   1.386       .  A
C295        C306   1.411       .  A
C296        C304   1.386       .  A
C296        C307   1.414       .  A
C297        C298   1.375       .  A
C297        H309   1.082       .  S
C298        H310   1.082       .  S
C299        C300   1.376       .  A
C299        H311   1.082       .  S
C300        H312   1.082       .  S
C301        C302   1.371       .  A
C301        H313   1.082       .  S
C302        H314   1.082       .  S
C303        C304   1.373       .  A
C303        H315   1.082       .  S
C304        H316   1.082       .  S
C305       C2406   1.489       .  S
C306       C2419   1.481       .  S
C307       C2539   1.488       .  S
C308       C2569   1.488       .  S
N319        N320   1.323       .  A
N319        C323   1.350   1_545  A
N319       Cu327   2.085       .  S
N320        C321   1.343   1_545  A
N320       Cu326   2.081       .  S
C321        C322   1.385       .  A
C321        H324   1.082       .  S
C322        C323   1.387       .  A
C322       C2399   1.484       .  S
C323        H325   1.082       .  S
Cu326       N329   2.080       .  S
Cu327       N337   2.085       .  S
Cu328       N330   2.068       .  S
Cu328       N336   2.069       .  S
N329        N330   1.319       .  A
N329        C333   1.345       .  A
N330        C331   1.345       .  A
C331        C332   1.389       .  A
C331        H334   1.081       .  S
C332        C333   1.390       .  A
C332       C2459   1.490       .  S
C333        H335   1.081       .  S
N336        N337   1.322       .  A
N336        C340   1.341       .  A
N337        C338   1.348       .  A
C338        C339   1.389       .  A
C338        H341   1.081       .  S
C339        C340   1.384       .  A
C339       C2389   1.483       .  S
C340        H342   1.082       .  S
N343        N344   1.322       .  A
N343        C347   1.353       .  A
N343       Cu351   2.104       .  S
N344        C345   1.340       .  A
N344       Cu350   2.062       .  S
C345        C346   1.381       .  A
C345        H348   1.082       .  S
C346        C347   1.393       .  A
C346       C2376   1.486       .  S
C347        H349   1.082       .  S
Cu350       N353   2.061       .  S
Cu351       N361   2.105       .  S
Cu352       N354   2.083       .  S
Cu352       N360   2.085       .  S
N353        N354   1.320       .  A
N353        C357   1.344       .  A
N354        C355   1.347       .  A
C355        C356   1.389       .  A
C355        H358   1.082       .  S
C356        C357   1.384       .  A
C356       C2429   1.481       .  S
C357        H359   1.082       .  S
N360        N361   1.324       .  A
N360        C364   1.344       .  A
N361        C362   1.350       .  A
C362        C363   1.396       .  A
C362        H365   1.080       .  S
C363        C364   1.390       .  A
C363       C2366   1.502       .  S
C364        H366   1.081       .  S
N367        N368   1.323       .  A
N367        C371   1.349       .  A
N367       Cu375   2.093       .  S
N368        C369   1.343       .  A
N368       Cu374   2.078       .  S
C369        C370   1.386       .  A
C369        H372   1.082       .  S
C370        C371   1.390       .  A
C370       C2379   1.489       .  S
C371        H373   1.081       .  S
Cu374       N377   2.076       .  S
Cu375       N385   2.093       .  S
Cu376       N378   2.072       .  S
Cu376       N384   2.073       .  S
N377        N378   1.321       .  A
N377        C381   1.347       .  A
N378        C379   1.345       .  A
C379        C380   1.384       .  A
C379        H382   1.082       .  S
C380        C381   1.385       .  A
C380       C1021   1.474       .  S
C381        H383   1.082       .  S
N384        N385   1.322       .  A
N384        C388   1.342       .  A
N385        C386   1.350       .  A
C386        C387   1.392       .  A
C386        H389   1.082       .  S
C387        C388   1.387       .  A
C387       C2396   1.492       .  S
C388        H390   1.080       .  S
O391       Cu399   2.033       .  S
O391        C401   1.281       .  A
O392       Cu399   2.026       .  S
O392        C402   1.280       .  A
O393       Cu399   2.028       .  S
O393        C403   1.280       .  A
O394       Cu399   2.026       .  S
O394        C404   1.280       .  A
O395       Cu400   2.019       .  S
O395        C404   1.279       .  A
O396       Cu400   2.019       .  S
O396        C403   1.279       .  A
O397       Cu400   2.010       .  S
O397        C402   1.278       .  A
O398       Cu400   2.011       .  S
O398        C401   1.278       .  A
Cu399      Cu400   2.364       .  S
C401       C2519   1.494       .  S
C402       C2346   1.491       .  S
C403       C2356   1.495       .  S
C404       C2369   1.494       .  S
O405       Cu413   2.028       .  S
O405        C415   1.280       .  A
O406       Cu413   2.031       .  S
O406        C416   1.280       .  A
O407       Cu413   2.017       .  S
O407        C417   1.279       .  A
O408       Cu413   2.016       .  S
O408        C418   1.279       .  A
O409       Cu414   2.003       .  S
O409        C418   1.278       .  A
O410       Cu414   2.003       .  S
O410        C417   1.278       .  A
O411       Cu414   2.008       .  S
O411        C416   1.278       .  A
O412       Cu414   2.005       .  S
O412        C415   1.278       .  A
Cu413      Cu414   2.367       .  S
C415       C2549   1.490       .  S
C416       C2326   1.493       .  S
C417       C2386   1.485       .  S
C418       C2336   1.484       .  S
O419       Cu427   2.009       .  S
O419        C429   1.278       .  A
O420       Cu427   2.008       .  S
O420        C430   1.278       .  A
O421       Cu427   2.000       .  S
O421        C431   1.277       .  A
O422       Cu427   2.002       .  S
O422        C432   1.277       .  A
O423       Cu428   2.022       .  S
O423        C432   1.280       .  A
O424       Cu428   2.018       .  S
O424        C431   1.279       .  A
O425       Cu428   2.023       .  S
O425        C430   1.280       .  A
O426       Cu428   2.023       .  S
O426        C429   1.280       .  A
Cu427      Cu428   2.367       .  S
C429       C2489   1.490       .  S
C430       C2316   1.489       .  S
C431       C2306   1.485       .  S
C432       C2579   1.487       .  S
N433        N434   1.322       .  A
N433        C437   1.351       .  A
N433       Cu441   2.092       .  S
N434        C435   1.338       .  A
N434       Cu440   2.058       .  S
C435        C436   1.381       .  A
C435        H438   1.082       .  S
C436        C437   1.390       .  A
C436       C2286   1.482       .  S
C437        H439   1.082       .  S
Cu440       N443   2.057       .  S
Cu441       N451   2.093       .  S
Cu442       N444   2.071       .  S
Cu442       N450   2.073       .  S
N443        N444   1.319       .  A
N443        C447   1.342       .  A
N444        C445   1.346       .  A
C445        C446   1.387       .  A
C445        H448   1.082       .  S
C446        C447   1.383       .  A
C446       C2296   1.477       .  S
C447        H449   1.082       .  S
N450        N451   1.323       .  A
N450        C454   1.341       .  A
N451        C452   1.349       .  A
C452        C453   1.392       .  A
C452        H455   1.080       .  S
C453        C454   1.386       .  A
C453       C2319   1.492       .  S
C454        H456   1.081       .  S
N457        N458   1.320       .  A
N457        C461   1.349   1_655  A
N457       Cu465   2.084       .  S
N458        C459   1.340   1_655  A
N458       Cu464   2.061       .  S
C459        C460   1.385       .  A
C459        H462   1.081       .  S
C460        C461   1.391       .  A
C460       C2269   1.486       .  S
C461        H463   1.082       .  S
Cu464       N467   2.061       .  S
Cu465       N475   2.086       .  S
Cu466       N468   2.076       .  S
Cu466       N474   2.078       .  S
N467        N468   1.319       .  A
N467        C471   1.341       .  A
N468        C469   1.347       .  A
C469        C470   1.390       .  A
C469        H472   1.082       .  S
C470        C471   1.385       .  A
C470       C2276   1.483       .  S
C471        H473   1.081       .  S
N474        N475   1.324       .  A
N474        C478   1.344       .  A
N475        C476   1.346       .  A
C476        C477   1.387       .  A
C476        H479   1.082       .  S
C477        C478   1.386       .  A
C477       C2339   1.485       .  S
C478        H480   1.081       .  S
N481        N482   1.323       .  A
N481        C485   1.348       .  A
N481       Cu489   2.083       .  S
N482        C483   1.342       .  A
N482       Cu488   2.076       .  S
C483        C484   1.385       .  A
C483        H486   1.081       .  S
C484        C485   1.387       .  A
C484       C2289   1.484       .  S
C485        H487   1.082       .  S
Cu488       N491   2.075       .  S
Cu489       N499   2.083       .  S
Cu490       N492   2.067       .  S
Cu490       N498   2.068       .  S
N491        N492   1.320       .  A
N491        C495   1.346       .  A
N492        C493   1.345       .  A
C493        C494   1.383       .  A
C493        H496   1.082       .  S
C494        C495   1.386       .  A
C494       C1555   1.473       .  S
C495        H497   1.082       .  S
N498        N499   1.321       .  A
N498        C502   1.340       .  A
N499        C500   1.349       .  A
C500        C501   1.391       .  A
C500        H503   1.081       .  S
C501        C502   1.385       .  A
C501       C2266   1.488       .  S
C502        H504   1.081       .  S
N505        C510   1.354       .  A
N505        C509   1.353       .  A
N505        H537   1.041       .  S
N506        C513   1.351       .  A
N506        C514   1.353       .  A
N507        C512   1.353       .  A
N507        C511   1.355       .  A
N507        H538   1.039       .  S
N508        C515   1.352       .  A
N508        C516   1.350       .  A
C509        C517   1.387       .  A
C509        C525   1.414       .  A
C510        C526   1.414       .  A
C510        C518   1.386       .  A
C511        C519   1.386       .  A
C511        C528   1.416       .  A
C512        C527   1.417       .  A
C512        C520   1.388       .  A
C513        C525   1.412       .  A
C513        C521   1.385       .  A
C514        C528   1.415       .  A
C514        C522   1.387       .  A
C515        C523   1.385       .  A
C515        C526   1.410       .  A
C516        C524   1.388       .  A
C516        C527   1.413       .  A
C517        C518   1.373       .  A
C517        H529   1.082       .  S
C518        H530   1.082       .  S
C519        C520   1.376       .  A
C519        H531   1.082       .  S
C520        H532   1.082       .  S
C521        C522   1.374       .  A
C521        H533   1.082       .  S
C522        H534   1.082       .  S
C523        C524   1.373       .  A
C523        H535   1.082       .  S
C524        H536   1.082       .  S
C525       C2256   1.485       .  S
C526       C2236   1.488       .  S
C527       C2226   1.485       .  S
C528       C2246   1.492       .  S
N539        N540   1.320       .  A
N539        C543   1.350       .  A
N539       Cu547   2.083   1_556  S
N540        C541   1.340       .  A
N540       Cu546   2.057       .  S
C541        C542   1.383       .  A
C541        H544   1.081       .  S
C542        C543   1.390       .  A
C542       C2216   1.482       .  S
C543        H545   1.082       .  S
Cu546       N549   2.057       .  S
Cu547       N557   2.084       .  S
Cu548       N550   2.096   1_554  S
Cu548       N556   2.099       .  S
N549        N550   1.320       .  A
N549        C553   1.341       .  A
N550        C551   1.351       .  A
C551        C552   1.393       .  A
C551        H554   1.081       .  S
C552        C553   1.383       .  A
C552       C2259   1.487       .  S
C553        H555   1.082       .  S
N556        N557   1.326       .  A
N556        C560   1.349       .  A
N557        C558   1.345       .  A
C558        C559   1.382       .  A
C558        H561   1.082       .  S
C559        C560   1.387       .  A
C559       C1302   1.478       .  S
C560        H562   1.082       .  S
N563        N564   1.320       .  A
N563        C567   1.350   1_545  A
N563       Cu571   2.086       .  S
N564        C565   1.338   1_545  A
N564       Cu570   2.059       .  S
C565        C566   1.385       .  A
C565        H568   1.081       .  S
C566        C567   1.392       .  A
C566       C2206   1.488       .  S
C567        H569   1.081       .  S
Cu570       N573   2.059       .  S
Cu571       N581   2.088       .  S
Cu572       N574   2.096       .  S
Cu572       N580   2.098       .  S
N573        N574   1.320       .  A
N573        C577   1.343       .  A
N574        C575   1.350       .  A
C575        C576   1.392       .  A
C575        H578   1.082       .  S
C576        C577   1.384       .  A
C576       C2249   1.487       .  S
C577        H579   1.082       .  S
N580        N581   1.324       .  A
N580        C584   1.346       .  A
N581        C582   1.349       .  A
C582        C583   1.388       .  A
C582        H585   1.082       .  S
C583        C584   1.390       .  A
C583       C2329   1.493       .  S
C584        H586   1.081       .  S
N587        N588   1.322       .  A
N587        C591   1.354       .  A
N587       Cu595   2.101       .  S
N588        C589   1.338       .  A
N588       Cu594   2.060       .  S
C589        C590   1.381       .  A
C589        H592   1.082       .  S
C590        C591   1.394       .  A
C590       C2186   1.487       .  S
C591        H593   1.082       .  S
Cu594       N597   2.060       .  S
Cu595       N605   2.102       .  S
Cu596       N598   2.069       .  S
Cu596       N604   2.070       .  S
N597        N598   1.318       .  A
N597        C601   1.344       .  A
N598        C599   1.344       .  A
C599        C600   1.389       .  A
C599        H602   1.080       .  S
C600        C601   1.388       .  A
C600       C2196   1.486       .  S
C601        H603   1.082       .  S
N604        N605   1.324       .  A
N604        C608   1.343       .  A
N605        C606   1.349       .  A
C606        C607   1.391       .  A
C606        H609   1.082       .  S
C607        C608   1.385       .  A
C607       C2349   1.489       .  S
C608        H610   1.081       .  S
N611        N612   1.322       .  A
N611        C615   1.350       .  A
N611       Cu619   2.085       .  S
N612        C613   1.341       .  A
N612       Cu618   2.078       .  S
C613        C614   1.388       .  A
C613        H616   1.080       .  S
C614        C615   1.390       .  A
C614       C2189   1.491       .  S
C615        H617   1.082       .  S
Cu618       N621   2.077       .  S
Cu619       N629   2.085       .  S
Cu620       N622   2.071       .  S
Cu620       N628   2.072       .  S
N621        N622   1.320       .  A
N621        C625   1.346       .  A
N622        C623   1.347       .  A
C623        C624   1.386       .  A
C623        H626   1.082       .  S
C624        C625   1.385       .  A
C624       C1463   1.476       .  S
C625        H627   1.082       .  S
N628        N629   1.324       .  A
N628        C632   1.340       .  A
N629        C630   1.349       .  A
C630        C631   1.387       .  A
C630        H633   1.082       .  S
C631        C632   1.383       .  A
C631       C2209   1.481       .  S
C632        H634   1.081       .  S
N635        C640   1.353       .  A
N635        C639   1.355       .  A
N635        H667   1.040       .  S
N636        C643   1.351       .  A
N636        C644   1.351       .  A
N637        C642   1.353       .  A
N637        C641   1.351       .  A
N637        H668   1.039       .  S
N638        C645   1.350       .  A
N638        C646   1.352       .  A
C639        C647   1.386       .  A
C639        C655   1.415       .  A
C640        C656   1.415       .  A
C640        C648   1.388       .  A
C641        C649   1.387       .  A
C641        C658   1.413       .  A
C642        C657   1.414       .  A
C642        C650   1.386       .  A
C643        C655   1.411       .  A
C643        C651   1.386       .  A
C644        C658   1.411       .  A
C644        C652   1.386       .  A
C645        C653   1.386       .  A
C645        C656   1.410       .  A
C646        C654   1.386       .  A
C646        C657   1.413       .  A
C647        C648   1.375       .  A
C647        H659   1.082       .  S
C648        H660   1.082       .  S
C649        C650   1.377       .  A
C649        H661   1.082       .  S
C650        H662   1.082       .  S
C651        C652   1.372       .  A
C651        H663   1.083       .  S
C652        H664   1.082       .  S
C653        C654   1.373       .  A
C653        H665   1.082       .  S
C654        H666   1.082       .  S
C655       C2219   1.488       .  S
C656       C2176   1.482       .  S
C657       C2169   1.488       .  S
C658       C2279   1.479       .  S
N669        N670   1.320       .  A
N669        C673   1.347       .  A
N669       Cu677   2.079   1_556  S
N670        C671   1.339       .  A
N670       Cu676   2.047       .  S
C671        C672   1.381       .  A
C671        H674   1.081       .  S
C672        C673   1.389       .  A
C672       C2156   1.478       .  S
C673        H675   1.082       .  S
Cu676       N679   2.048       .  S
Cu677       N687   2.081       .  S
Cu678       N680   2.076   1_554  S
Cu678       N686   2.078       .  S
N679        N680   1.318       .  A
N679        C683   1.339       .  A
N680        C681   1.347       .  A
C681        C682   1.390       .  A
C681        H684   1.081       .  S
C682        C683   1.383       .  A
C682       C2179   1.480       .  S
C683        H685   1.082       .  S
N686        N687   1.325       .  A
N686        C690   1.344       .  A
N687        C688   1.347       .  A
C688        C689   1.383       .  A
C688        H691   1.082       .  S
C689        C690   1.381       .  A
C689       C1620   1.471       .  S
C690        H692   1.082       .  S
N693        C698   1.352       .  A
N693        C697   1.354       .  A
N693        H725   1.040       .  S
N694        C701   1.352       .  A
N694        C702   1.350       .  A
N695        C700   1.354       .  A
N695        C699   1.353       .  A
N695        H726   1.039       .  S
N696        C703   1.350       .  A
N696        C704   1.351       .  A
C697        C705   1.386       .  A
C697        C713   1.413       .  A
C698        C714   1.414       .  A
C698        C706   1.388       .  A
C699        C707   1.388       .  A
C699        C716   1.416       .  A
C700        C715   1.414       .  A
C700        C708   1.386       .  A
C701        C713   1.410       .  A
C701        C709   1.384       .  A
C702        C716   1.414       .  A
C702        C710   1.388       .  A
C703        C711   1.386       .  A
C703        C714   1.410       .  A
C704        C712   1.387       .  A
C704        C715   1.412       .  A
C705        C706   1.373       .  A
C705        H717   1.082       .  S
C706        H718   1.082       .  S
C707        C708   1.375       .  A
C707        H719   1.082       .  S
C708        H720   1.082       .  S
C709        C710   1.372       .  A
C709        H721   1.082       .  S
C710        H722   1.082       .  S
C711        C712   1.371       .  A
C711        H723   1.082       .  S
C712        H724   1.082       .  S
C713       C2146   1.485       .  S
C714       C2159   1.480       .  S
C715       C2199   1.485       .  S
C716       C2299   1.485       .  S
N727        N728   1.320       .  A
N727        C731   1.349       .  A
N727       Cu735   2.078   1_556  S
N728        C729   1.341       .  A
N728       Cu734   2.063       .  S
C729        C730   1.384       .  A
C729        H732   1.081       .  S
C730        C731   1.389       .  A
C730       C2149   1.483       .  S
C731        H733   1.082       .  S
Cu734       N737   2.063       .  S
Cu735       N745   2.079       .  S
Cu736       N738   2.082   1_554  S
Cu736       N744   2.084       .  S
N737        N738   1.320       .  A
N737        C741   1.341       .  A
N738        C739   1.349       .  A
C739        C740   1.389       .  A
C739        H742   1.082       .  S
C740        C741   1.385       .  A
C740       C2239   1.484       .  S
C741        H743   1.081       .  S
N744        N745   1.325       .  A
N744        C748   1.346       .  A
N745        C746   1.345       .  A
C746        C747   1.382       .  A
C746        H749   1.082       .  S
C747        C748   1.383       .  A
C747       C1374   1.472       .  S
C748        H750   1.082       .  S
N751        N752   1.321       .  A
N751        C755   1.351   1_655  A
N751       Cu759   2.099       .  S
N752        C753   1.343   1_655  A
N752       Cu758   2.066       .  S
C753        C754   1.385       .  A
C753        H756   1.082       .  S
C754        C755   1.392       .  A
C754       C2136   1.489       .  S
C755        H757   1.081       .  S
Cu758       N761   2.066       .  S
Cu759       N769   2.100       .  S
Cu760       N762   2.087       .  S
Cu760       N768   2.088       .  S
N761        N762   1.320       .  A
N761        C765   1.342       .  A
N762        C763   1.349       .  A
C763        C764   1.391       .  A
C763        H766   1.082       .  S
C764        C765   1.385       .  A
C764       C2166   1.487       .  S
C765        H767   1.081       .  S
N768        N769   1.324       .  A
N768        C772   1.345       .  A
N769        C770   1.350       .  A
C770        C771   1.392       .  A
C770        H773   1.081       .  S
C771        C772   1.388       .  A
C771       C2359   1.495       .  S
C772        H774   1.081       .  S
N775        N776   1.319       .  A
N775        C779   1.349   1_545  A
N775       Cu783   2.087       .  S
N776        C777   1.339   1_545  A
N776       Cu782   2.055       .  S
C777        C778   1.387       .  A
C777        H780   1.079       .  S
C778        C779   1.395       .  A
C778       C2126   1.493       .  S
C779        H781   1.081       .  S
Cu782       N785   2.054       .  S
Cu783       N793   2.089       .  S
Cu784       N786   2.072       .  S
Cu784       N792   2.075       .  S
N785        N786   1.318       .  A
N785        C789   1.338       .  A
N786        C787   1.348       .  A
C787        C788   1.392       .  A
C787        H790   1.081       .  S
C788        C789   1.385       .  A
C788       C2229   1.485       .  S
C789        H791   1.081       .  S
N792        N793   1.325       .  A
N792        C796   1.343       .  A
N793        C794   1.347       .  A
C794        C795   1.386       .  A
C794        H797   1.082       .  S
C795        C796   1.383       .  A
C795       C2309   1.482       .  S
C796        H798   1.081       .  S
N799        N800   1.324       .  A
N799        C803   1.350       .  A
N799       Cu807   2.090       .  S
N800        C801   1.342       .  A
N800       Cu806   2.084       .  S
C801        C802   1.385       .  A
C801        H804   1.082       .  S
C802        C803   1.388       .  A
C802       C2129   1.486       .  S
C803        H805   1.081       .  S
Cu806       N809   2.083       .  S
Cu807       N817   2.089       .  S
Cu808       N810   2.072       .  S
Cu808       N816   2.073       .  S
N809        N810   1.320       .  A
N809        C813   1.348       .  A
N810        C811   1.346       .  A
C811        C812   1.384       .  A
C811        H814   1.082       .  S
C812        C813   1.388       .  A
C812       C1405   1.479       .  S
C813        H815   1.082       .  S
N816        N817   1.323       .  A
N816        C820   1.342       .  A
N817        C818   1.351       .  A
C818        C819   1.389       .  A
C818        H821   1.082       .  S
C819        C820   1.383       .  A
C819       C2139   1.484       .  S
C820        H822   1.082       .  S
N823        N824   1.321   1_455  A
N823        C827   1.352   1_455  A
N823       Cu831   2.097       .  S
N824        C825   1.343       .  A
N824       Cu830   2.071   1_655  S
C825        C826   1.385       .  A
C825        H828   1.082       .  S
C826        C827   1.392       .  A
C826       C2106   1.489       .  S
C827        H829   1.082       .  S
Cu830       N833   2.071       .  S
Cu831       N841   2.098       .  S
Cu832       N834   2.096       .  S
Cu832       N840   2.097       .  S
N833        N834   1.320       .  A
N833        C837   1.342       .  A
N834        C835   1.351       .  A
C835        C836   1.394       .  A
C835        H838   1.082       .  S
C836        C837   1.387       .  A
C836       C2116   1.493       .  S
C837        H839   1.080       .  S
N840        N841   1.325       .  A
N840        C844   1.347       .  A
N841        C842   1.349       .  A
C842        C843   1.389       .  A
C842        H845   1.082       .  S
C843        C844   1.389       .  A
C843       C2096   1.494       .  S
C844        H846   1.081       .  S
N847        N848   1.321       .  A
N847        C851   1.352   1_565  A
N847       Cu855   2.096       .  S
N848        C849   1.341   1_565  A
N848       Cu854   2.064       .  S
C849        C850   1.383       .  A
C849        H852   1.081       .  S
C850        C851   1.392       .  A
C850       C2076   1.486       .  S
C851        H853   1.082       .  S
Cu854       N857   2.063       .  S
Cu855       N865   2.097       .  S
Cu856       N858   2.083       .  S
Cu856       N864   2.085       .  S
N857        N858   1.320       .  A
N857        C861   1.343       .  A
N858        C859   1.348       .  A
C859        C860   1.390       .  A
C859        H862   1.082       .  S
C860        C861   1.386       .  A
C860       C2089   1.486       .  S
C861        H863   1.081       .  S
N864        N865   1.324       .  A
N864        C868   1.345       .  A
N865        C866   1.348       .  A
C866        C867   1.390       .  A
C866        H869   1.081       .  S
C867        C868   1.389       .  A
C867       C2066   1.493       .  S
C868        H870   1.081       .  S
N871        N872   1.323       .  A
N871        C875   1.352       .  A
N871       Cu879   2.103       .  S
N872        C873   1.344       .  A
N872       Cu878   2.079       .  S
C873        C874   1.385       .  A
C873        H876   1.082       .  S
C874        C875   1.392       .  A
C874       C2109   1.491       .  S
C875        H877   1.081       .  S
Cu878       N881   2.077       .  S
Cu879       N889   2.102       .  S
Cu880       N882   2.070       .  S
Cu880       N888   2.071       .  S
N881        N882   1.321       .  A
N881        C885   1.346       .  A
N882        C883   1.345       .  A
C883        C884   1.383       .  A
C883        H886   1.082       .  S
C884        C885   1.385       .  A
C885        H887   1.082       .  S
N888        N889   1.322       .  A
N888        C892   1.342       .  A
N889        C890   1.350       .  A
C890        C891   1.395       .  A
C890        H893   1.080       .  S
C891        C892   1.388       .  A
C891       C2079   1.496       .  S
C892        H894   1.081       .  S
N895        N896   1.320       .  A
N895        C899   1.353       .  A
N895       Cu903   2.096       .  S
N896        C897   1.338       .  A
N896       Cu902   2.059       .  S
C897        C898   1.385       .  A
C897        H900   1.081       .  S
C898        C899   1.397       .  A
C898       C2046   1.495       .  S
C899        H901   1.081       .  S
Cu902       N905   2.060       .  S
Cu903       N913   2.098       .  S
Cu904       N906   2.085       .  S
Cu904       N912   2.086       .  S
N905        N906   1.318       .  A
N905        C909   1.343       .  A
N906        C907   1.348       .  A
C907        C908   1.393       .  A
C907        H910   1.081       .  S
C908        C909   1.385       .  A
C908       C2056   1.488       .  S
C909        H911   1.082       .  S
N912        N913   1.325       .  A
N912        C916   1.344       .  A
N913        C914   1.349       .  A
C914        C915   1.390       .  A
C914        H917   1.081       .  S
C915        C916   1.386       .  A
C915       C2039   1.490       .  S
C916        H918   1.082       .  S
N919        N920   1.320       .  A
N919        C923   1.351   1_565  A
N919       Cu927   2.091       .  S
N920        C921   1.338   1_565  A
N920       Cu926   2.059       .  S
C921        C922   1.385       .  A
C921        H924   1.080       .  S
C922        C923   1.393       .  A
C922       C2019   1.490       .  S
C923        H925   1.082       .  S
Cu926       N929   2.058       .  S
Cu927       N937   2.092       .  S
Cu928       N930   2.065       .  S
Cu928       N936   2.067       .  S
N929        N930   1.318       .  A
N929        C933   1.341       .  A
N930        C931   1.345       .  A
C931        C932   1.388       .  A
C931        H934   1.081       .  S
C932        C933   1.385       .  A
C932       C2029   1.480       .  S
C933        H935   1.082       .  S
N936        N937   1.323       .  A
N936        C940   1.341       .  A
N937        C938   1.347       .  A
C938        C939   1.390       .  A
C938        H941   1.081       .  S
C939        C940   1.384       .  A
C939       C2006   1.487       .  S
C940        H942   1.080       .  S
N943        N944   1.324       .  A
N943        C947   1.350       .  A
N943       Cu951   2.092       .  S
N944        C945   1.343       .  A
N944       Cu950   2.081       .  S
C945        C946   1.385       .  A
C945        H948   1.081       .  S
C946        C947   1.388       .  A
C946       C2049   1.487       .  S
C947        H949   1.082       .  S
Cu950       N953   2.080       .  S
Cu951       N961   2.092       .  S
Cu952       N954   2.066       .  S
Cu952       N960   2.067       .  S
N953        N954   1.320       .  A
N953        C957   1.346       .  A
N954        C955   1.346       .  A
C955        C956   1.383       .  A
C955        H958   1.082       .  S
C956        C957   1.386       .  A
C957        H959   1.082       .  S
N960        N961   1.322       .  A
N960        C964   1.340       .  A
N961        C962   1.350       .  A
C962        C963   1.390       .  A
C962        H965   1.081       .  S
C963        C964   1.384       .  A
C963       C2016   1.486       .  S
C964        H966   1.082       .  S
N967        C972   1.351       .  A
N967        C971   1.353       .  A
N967        H999   1.038       .  S
N968        C975   1.353       .  A
N968        C976   1.351       .  A
N969        C974   1.354       .  A
N969        C973   1.352       .  A
N969       H1000   1.038       .  S
N970        C977   1.351       .  A
N970        C978   1.351       .  A
C971        C979   1.387       .  A
C971        C987   1.415       .  A
C972        C988   1.412       .  A
C972        C980   1.386       .  A
C973        C981   1.387       .  A
C973        C990   1.415       .  A
C974        C989   1.416       .  A
C974        C982   1.387       .  A
C975        C987   1.415       .  A
C975        C983   1.387       .  A
C976        C990   1.412       .  A
C976        C984   1.386       .  A
C977        C985   1.387       .  A
C977        C988   1.414       .  A
C978        C986   1.386       .  A
C978        C989   1.413       .  A
C979        C980   1.377       .  A
C979        H991   1.082       .  S
C980        H992   1.082       .  S
C981        C982   1.377       .  A
C981        H993   1.082       .  S
C982        H994   1.082       .  S
C983        C984   1.372       .  A
C983        H995   1.082       .  S
C984        H996   1.082       .  S
C985        C986   1.372       .  A
C985        H997   1.082       .  S
C986        H998   1.082       .  S
C987       C1996   1.491       .  S
C988       C1986   1.483       .  S
C989       C2086   1.487       .  S
C990       C2026   1.483       .  S
N1001      N1002   1.320       .  A
N1001      C1005   1.348       .  A
N1001     Cu1009   2.084       .  S
N1002      C1003   1.342       .  A
N1002     Cu1008   2.060       .  S
C1003      C1004   1.384       .  A
C1003      H1006   1.082       .  S
C1004      C1005   1.389       .  A
C1004      C1976   1.483       .  S
C1005      H1007   1.082       .  S
Cu1008     N1011   2.060       .  S
Cu1009     N1019   2.085       .  S
Cu1010     N1012   2.082       .  S
Cu1010     N1018   2.084       .  S
N1011      N1012   1.321       .  A
N1011      C1015   1.340       .  A
N1012      C1013   1.349       .  A
C1013      C1014   1.389       .  A
C1013      H1016   1.082       .  S
C1014      C1015   1.381       .  A
C1014      C1989   1.479       .  S
C1015      H1017   1.082       .  S
N1018      N1019   1.325       .  A
N1018      C1022   1.346       .  A
N1019      C1020   1.346       .  A
C1020      C1021   1.383       .  A
C1020      H1023   1.082       .  S
C1021      C1022   1.383       .  A
C1022      H1024   1.082       .  S
N1025      C1030   1.352       .  A
N1025      C1029   1.353       .  A
N1025      H1057   1.036       .  S
N1026      C1033   1.354       .  A
N1026      C1034   1.352       .  A
N1027      C1032   1.356       .  A
N1027      C1031   1.354       .  A
N1027      H1058   1.038       .  S
N1028      C1035   1.353       .  A
N1028      C1036   1.353       .  A
C1029      C1037   1.387       .  A
C1029      C1045   1.416       .  A
C1030      C1046   1.414       .  A
C1030      C1038   1.387       .  A
C1031      C1039   1.387       .  A
C1031      C1048   1.417       .  A
C1032      C1047   1.418       .  A
C1032      C1040   1.386       .  A
C1033      C1045   1.416       .  A
C1033      C1041   1.386       .  A
C1034      C1048   1.415       .  A
C1034      C1042   1.386       .  A
C1035      C1043   1.386       .  A
C1035      C1046   1.415       .  A
C1036      C1044   1.386       .  A
C1036      C1047   1.415       .  A
C1037      C1038   1.376       .  A
C1037      H1049   1.082       .  S
C1038      H1050   1.082       .  S
C1039      C1040   1.377       .  A
C1039      H1051   1.082       .  S
C1040      H1052   1.082       .  S
C1041      C1042   1.372       .  A
C1041      H1053   1.082       .  S
C1042      H1054   1.082       .  S
C1043      C1044   1.372       .  A
C1043      H1055   1.082       .  S
C1044      H1056   1.082       .  S
C1045      C1956   1.488       .  S
C1046      C1969   1.483       .  S
C1047      C2119   1.492       .  S
C1048      C1946   1.487       .  S
N1059      N1060   1.320       .  A
N1059      C1063   1.351       .  A
N1059     Cu1067   2.080       .  S
N1060      C1061   1.339       .  A
N1060     Cu1066   2.060       .  S
C1061      C1062   1.381       .  A
C1061      H1064   1.082       .  S
C1062      C1063   1.389       .  A
C1062      C1999   1.479       .  S
C1063      H1065   1.082       .  S
Cu1066     N1069   2.060       .  S
Cu1067     N1077   2.083       .  S
Cu1068     N1070   2.082       .  S
Cu1068     N1076   2.084       .  S
N1069      N1070   1.319       .  A
N1069      C1073   1.340       .  A
N1070      C1071   1.350       .  A
C1071      C1072   1.392       .  A
C1071      H1074   1.082       .  S
C1072      C1073   1.385       .  A
C1072      C1959   1.487       .  S
C1073      H1075   1.081       .  S
N1076      N1077   1.326       .  A
N1076      C1080   1.346       .  A
N1077      C1078   1.345       .  A
C1078      C1079   1.382       .  A
C1078      H1081   1.082       .  S
C1079      C1080   1.382       .  A
C1080      H1082   1.082       .  S
N1083      C1088   1.354       .  A
N1083      C1087   1.352       .  A
N1083      H1115   1.038       .  S
N1084      C1091   1.353       .  A
N1084      C1092   1.353       .  A
N1085      C1090   1.353       .  A
N1085      C1089   1.354       .  A
N1085      H1116   1.036       .  S
N1086      C1093   1.353       .  A
N1086      C1094   1.352       .  A
C1087      C1095   1.387       .  A
C1087      C1103   1.415       .  A
C1088      C1104   1.415       .  A
C1088      C1096   1.386       .  A
C1089      C1097   1.387       .  A
C1089      C1106   1.417       .  A
C1090      C1105   1.416       .  A
C1090      C1098   1.388       .  A
C1091      C1103   1.417       .  A
C1091      C1099   1.387       .  A
C1092      C1106   1.416       .  A
C1092      C1100   1.386       .  A
C1093      C1101   1.386       .  A
C1093      C1104   1.415       .  A
C1094      C1102   1.387       .  A
C1094      C1105   1.415       .  A
C1095      C1096   1.376       .  A
C1095      H1107   1.082       .  S
C1096      H1108   1.082       .  S
C1097      C1098   1.377       .  A
C1097      H1109   1.082       .  S
C1098      H1110   1.082       .  S
C1099      C1100   1.372       .  A
C1099      H1111   1.082       .  S
C1100      H1112   1.082       .  S
C1101      C1102   1.371       .  A
C1101      H1113   1.082       .  S
C1102      H1114   1.082       .  S
C1103      C1939   1.488       .  S
C1104      C1979   1.490       .  S
C1105      C1926   1.483       .  S
C1106      C2059   1.489       .  S
N1117      N1118   1.320       .  A
N1117      C1121   1.349       .  A
N1117     Cu1125   2.082       .  S
N1118      C1119   1.340       .  A
N1118     Cu1124   2.058       .  S
C1119      C1120   1.382       .  A
C1119      H1122   1.082       .  S
C1120      C1121   1.389       .  A
C1120      C1936   1.480       .  S
C1121      H1123   1.082       .  S
Cu1124     N1127   2.058       .  S
Cu1125     N1135   2.083       .  S
Cu1126     N1128   2.081       .  S
Cu1126     N1134   2.082       .  S
N1127      N1128   1.320       .  A
N1127      C1131   1.340       .  A
N1128      C1129   1.349       .  A
C1129      C1130   1.390       .  A
C1129      H1132   1.082       .  S
C1130      C1131   1.383       .  A
C1130      C1966   1.483       .  S
C1131      H1133   1.081       .  S
N1134      N1135   1.326       .  A
N1134      C1138   1.346       .  A
N1135      C1136   1.345       .  A
C1136      C1137   1.382       .  A
C1136      H1139   1.082       .  S
C1137      C1138   1.382       .  A
C1138      H1140   1.082       .  S
N1141      N1142   1.321       .  A
N1141      C1145   1.351       .  A
N1141     Cu1149   2.094       .  S
N1142      C1143   1.340       .  A
N1142     Cu1148   2.062       .  S
C1143      C1144   1.384       .  A
C1143      H1146   1.082       .  S
C1144      C1145   1.393       .  A
C1144      C1916   1.488       .  S
C1145      H1147   1.081       .  S
Cu1148     N1151   2.061       .  S
Cu1149     N1159   2.095       .  S
Cu1150     N1152   2.074       .  S
Cu1150     N1158   2.075       .  S
N1151      N1152   1.319       .  A
N1151      C1155   1.342       .  A
N1152      C1153   1.346       .  A
C1153      C1154   1.390       .  A
C1153      H1156   1.081       .  S
C1154      C1155   1.385       .  A
C1154      C1929   1.484       .  S
C1155      H1157   1.082       .  S
N1158      N1159   1.323       .  A
N1158      C1162   1.342       .  A
N1159      C1160   1.349       .  A
C1160      C1161   1.392       .  A
C1160      H1163   1.081       .  S
C1161      C1162   1.388       .  A
C1161      C1906   1.494       .  S
C1162      H1164   1.080       .  S
N1165      N1166   1.322       .  A
N1165      C1169   1.348   1_455  A
N1165     Cu1173   2.082       .  S
N1166      C1167   1.341   1_455  A
N1166     Cu1172   2.065       .  S
C1167      C1168   1.382       .  A
C1167      H1170   1.082       .  S
C1168      C1169   1.387       .  A
C1168      C1899   1.479       .  S
C1169      H1171   1.082       .  S
Cu1172     N1175   2.065       .  S
Cu1173     N1183   2.083       .  S
Cu1174     N1176   2.078       .  S
Cu1174     N1182   2.079       .  S
N1175      N1176   1.319       .  A
N1175      C1179   1.343       .  A
N1176      C1177   1.346       .  A
C1177      C1178   1.391       .  A
C1177      H1180   1.081       .  S
C1178      C1179   1.389       .  A
C1178      C1949   1.490       .  S
C1179      H1181   1.080       .  S
N1182      N1183   1.323       .  A
N1182      C1186   1.344       .  A
N1183      C1184   1.347       .  A
C1184      C1185   1.389       .  A
C1184      H1187   1.082       .  S
C1185      C1186   1.387       .  A
C1185      C1886   1.488       .  S
C1186      H1188   1.081       .  S
N1189      N1190   1.323       .  A
N1189      C1193   1.349       .  A
N1189     Cu1197   2.083       .  S
N1190      C1191   1.342       .  A
N1190     Cu1196   2.075       .  S
C1191      C1192   1.384       .  A
C1191      H1194   1.082       .  S
C1192      C1193   1.387       .  A
C1192      C1919   1.482       .  S
C1193      H1195   1.082       .  S
Cu1196     N1199   2.074       .  S
Cu1197     N1207   2.083       .  S
Cu1198     N1200   2.063       .  S
Cu1198     N1206   2.063       .  S
N1199      N1200   1.320       .  A
N1199      C1203   1.345       .  A
N1200      C1201   1.345       .  A
C1201      C1202   1.383       .  A
C1201      H1204   1.082       .  S
C1202      C1203   1.385       .  A
C1203      H1205   1.082       .  S
N1206      N1207   1.322       .  A
N1206      C1210   1.339       .  A
N1207      C1208   1.349       .  A
C1208      C1209   1.391       .  A
C1208      H1211   1.081       .  S
C1209      C1210   1.384       .  A
C1209      C1896   1.486       .  S
C1210      H1212   1.081       .  S
O1213     Cu1221   2.003       .  S
O1213      C1223   1.277       .  A
O1214     Cu1221   2.004       .  S
O1214      C1224   1.278       .  A
O1215     Cu1221   2.003       .  S
O1215      C1225   1.278       .  A
O1216     Cu1221   2.004       .  S
O1216      C1226   1.278       .  A
O1217     Cu1222   2.032       .  S
O1217      C1226   1.281       .  A
O1218     Cu1222   2.035       .  S
O1218      C1225   1.281       .  A
O1219     Cu1222   2.022       .  S
O1219      C1224   1.280       .  A
O1220     Cu1222   2.019       .  S
O1220      C1223   1.280       .  A
Cu1221    Cu1222   2.366       .  S
C1223      C1869   1.488       .  S
C1224      C2036   1.489       .  S
C1225      C1876   1.490       .  S
C1226      C2099   1.491       .  S
O1227     Cu1235   2.025       .  S
O1227      C1237   1.279       .  A
O1228     Cu1235   2.031       .  S
O1228      C1238   1.280       .  A
O1229     Cu1235   2.032       .  S
O1229      C1239   1.281       .  A
O1230     Cu1235   2.030       .  S
O1230      C1240   1.281       .  A
O1231     Cu1236   2.005       .  S
O1231      C1240   1.278       .  A
O1232     Cu1236   2.002       .  S
O1232      C1239   1.277       .  A
O1233     Cu1236   2.010       .  S
O1233      C1238   1.279       .  A
O1234     Cu1236   2.009       .  S
O1234      C1237   1.279       .  A
Cu1235    Cu1236   2.365       .  S
C1237      C1909   1.490       .  S
C1238      C1856   1.494       .  S
C1239      C2069   1.491       .  S
C1240      C1846   1.491       .  S
N1241      N1242   1.321       .  A
N1241      C1245   1.349   1_455  A
N1241     Cu1249   2.086       .  S
N1242      C1243   1.342   1_455  A
N1242     Cu1248   2.071       .  S
C1243      C1244   1.384       .  A
C1243      H1246   1.082       .  S
C1244      C1245   1.390       .  A
C1244      C1829   1.485       .  S
C1245      H1247   1.082       .  S
Cu1248     N1251   2.071       .  S
Cu1249     N1259   2.086       .  S
Cu1250     N1252   2.086       .  S
Cu1250     N1258   2.087       .  S
N1251      N1252   1.321       .  A
N1251      C1255   1.344       .  A
N1252      C1253   1.349       .  A
C1253      C1254   1.391       .  A
C1253      H1256   1.081       .  S
C1254      C1255   1.385       .  A
C1254      C1836   1.488       .  S
C1255      H1257   1.082       .  S
N1258      N1259   1.322       .  A
N1258      C1262   1.344       .  A
N1259      C1260   1.346       .  A
C1260      C1261   1.392       .  A
C1260      H1263   1.079       .  S
C1261      C1262   1.391       .  A
C1261      C1866   1.497       .  S
C1262      H1264   1.081       .  S
N1265      N1266   1.322       .  A
N1265      C1269   1.352   1_565  A
N1265     Cu1273   2.093       .  S
N1266      C1267   1.341   1_565  A
N1266     Cu1272   2.070       .  S
C1267      C1268   1.383       .  A
C1267      H1270   1.082       .  S
C1268      C1269   1.390       .  A
C1268      C1806   1.484       .  S
C1269      H1271   1.082       .  S
Cu1272     N1275   2.069       .  S
Cu1273     N1283   2.094       .  S
Cu1274     N1276   2.094       .  S
Cu1274     N1282   2.095       .  S
N1275      N1276   1.320       .  A
N1275      C1279   1.345       .  A
N1276      C1277   1.349       .  A
C1277      C1278   1.393       .  A
C1277      H1280   1.081       .  S
C1278      C1279   1.387       .  A
C1278      C1816   1.492       .  S
C1279      H1281   1.082       .  S
N1282      N1283   1.324       .  A
N1282      C1286   1.346       .  A
N1283      C1284   1.349       .  A
C1284      C1285   1.390       .  A
C1284      H1287   1.082       .  S
C1285      C1286   1.390       .  A
C1285      C1859   1.495       .  S
C1286      H1288   1.081       .  S
N1289      N1290   1.323       .  A
N1289      C1293   1.349       .  A
N1289     Cu1297   2.092       .  S
N1290      C1291   1.345       .  A
N1290     Cu1296   2.083       .  S
C1291      C1292   1.387       .  A
C1291      H1294   1.081       .  S
C1292      C1293   1.389       .  A
C1292      C1826   1.488       .  S
C1293      H1295   1.082       .  S
Cu1296     N1299   2.082       .  S
Cu1297     N1307   2.092       .  S
Cu1298     N1300   2.075       .  S
Cu1298     N1306   2.076       .  S
N1299      N1300   1.321       .  A
N1299      C1303   1.346       .  A
N1300      C1301   1.348       .  A
C1301      C1302   1.385       .  A
C1301      H1304   1.082       .  S
C1302      C1303   1.386       .  A
C1303      H1305   1.082       .  S
N1306      N1307   1.323       .  A
N1306      C1310   1.342       .  A
N1307      C1308   1.351       .  A
C1308      C1309   1.390       .  A
C1308      H1311   1.082       .  S
C1309      C1310   1.384       .  A
C1309      C1809   1.486       .  S
C1310      H1312   1.082       .  S
N1313      N1314   1.322       .  A
N1313      C1317   1.351       .  A
N1313     Cu1321   2.092       .  S
N1314      C1315   1.341       .  A
N1314     Cu1320   2.064       .  S
C1315      C1316   1.381       .  A
C1315      H1318   1.082       .  S
C1316      C1317   1.389       .  A
C1316      C1786   1.481       .  S
C1317      H1319   1.082       .  S
Cu1320     N1323   2.064       .  S
Cu1321     N1331   2.094       .  S
Cu1322     N1324   2.075       .  S
Cu1322     N1330   2.077       .  S
N1323      N1324   1.319       .  A
N1323      C1327   1.343       .  A
N1324      C1325   1.347       .  A
C1325      C1326   1.389       .  A
C1325      H1328   1.081       .  S
C1326      C1327   1.385       .  A
C1326      C1796   1.484       .  S
C1327      H1329   1.082       .  S
N1330      N1331   1.324       .  A
N1330      C1334   1.343       .  A
N1331      C1332   1.350       .  A
C1332      C1333   1.389       .  A
C1332      H1335   1.082       .  S
C1333      C1334   1.385       .  A
C1333      C1879   1.488       .  S
C1334      H1336   1.081       .  S
N1337      N1338   1.321       .  A
N1337      C1341   1.348   1_565  A
N1337     Cu1345   2.072       .  S
N1338      C1339   1.338   1_565  A
N1338     Cu1344   2.061       .  S
C1339      C1340   1.382       .  A
C1339      H1342   1.081       .  S
C1340      C1341   1.387       .  A
C1340      C1766   1.477       .  S
C1341      H1343   1.082       .  S
Cu1344     N1347   2.061       .  S
Cu1345     N1355   2.073       .  S
Cu1346     N1348   2.090       .  S
Cu1346     N1354   2.091       .  S
N1347      N1348   1.319       .  A
N1347      C1351   1.344       .  A
N1348      C1349   1.347       .  A
C1349      C1350   1.393       .  A
C1349      H1352   1.080       .  S
C1350      C1351   1.387       .  A
C1350      C1776   1.491       .  S
C1351      H1353   1.082       .  S
N1354      N1355   1.324       .  A
N1354      C1358   1.346       .  A
N1355      C1356   1.345       .  A
C1356      C1357   1.385       .  A
C1356      H1359   1.081       .  S
C1357      C1358   1.388       .  A
C1357      C1756   1.485       .  S
C1358      H1360   1.082       .  S
N1361      N1362   1.322       .  A
N1361      C1365   1.348       .  A
N1361     Cu1369   2.080       .  S
N1362      C1363   1.341       .  A
N1362     Cu1368   2.075       .  S
C1363      C1364   1.386       .  A
C1363      H1366   1.081       .  S
C1364      C1365   1.389       .  A
C1364      C1789   1.486       .  S
C1365      H1367   1.081       .  S
Cu1368     N1371   2.073       .  S
Cu1369     N1379   2.078       .  S
Cu1370     N1372   2.064       .  S
Cu1370     N1378   2.065       .  S
N1371      N1372   1.320       .  A
N1371      C1375   1.345       .  A
N1372      C1373   1.344       .  A
C1373      C1374   1.383       .  A
C1373      H1376   1.082       .  S
C1374      C1375   1.385       .  A
C1375      H1377   1.082       .  S
N1378      N1379   1.322       .  A
N1378      C1382   1.339       .  A
N1379      C1380   1.348       .  A
C1380      C1381   1.388       .  A
C1380      H1383   1.081       .  S
C1381      C1382   1.384       .  A
C1381      C1769   1.482       .  S
C1382      H1384   1.082       .  S
N1385      N1386   1.319   1_556  A
N1385      C1389   1.350       .  A
N1385     Cu1393   2.083       .  S
N1386      C1387   1.339       .  A
N1386     Cu1392   2.057       .  S
C1387      C1388   1.384       .  A
C1387      H1390   1.082       .  S
C1388      C1389   1.393   1_554  A
C1388      C1739   1.487       .  S
C1389      H1391   1.081       .  S
Cu1392     N1395   2.057       .  S
Cu1393     N1403   2.085       .  S
Cu1394     N1396   2.104       .  S
Cu1394     N1402   2.106       .  S
N1395      N1396   1.320   1_554  A
N1395      C1399   1.340       .  A
N1396      C1397   1.353       .  A
C1397      C1398   1.396   1_556  A
C1397      H1400   1.081       .  S
C1398      C1399   1.384       .  A
C1398      C1746   1.493       .  S
C1399      H1401   1.082       .  S
N1402      N1403   1.327       .  A
N1402      C1406   1.349       .  A
N1403      C1404   1.347       .  A
C1404      C1405   1.382       .  A
C1404      H1407   1.082       .  S
C1405      C1406   1.387       .  A
C1406      H1408   1.082       .  S
N1409      C1414   1.355       .  A
N1409      C1413   1.352       .  A
N1409      H1441   1.035       .  S
N1410      C1417   1.351       .  A
N1410      C1418   1.353       .  A
N1411      C1416   1.353       .  A
N1411      C1415   1.356       .  A
N1411      H1442   1.035       .  S
N1412      C1419   1.355       .  A
N1412      C1420   1.352       .  A
C1413      C1421   1.388       .  A
C1413      C1429   1.417       .  A
C1414      C1430   1.418       .  A
C1414      C1422   1.386       .  A
C1415      C1423   1.387       .  A
C1415      C1432   1.418       .  A
C1416      C1431   1.416       .  A
C1416      C1424   1.387       .  A
C1417      C1429   1.415       .  A
C1417      C1425   1.387       .  A
C1418      C1432   1.414       .  A
C1418      C1426   1.385       .  A
C1419      C1427   1.386       .  A
C1419      C1430   1.416       .  A
C1420      C1428   1.386       .  A
C1420      C1431   1.415       .  A
C1421      C1422   1.376       .  A
C1421      H1433   1.082       .  S
C1422      H1434   1.082       .  S
C1423      C1424   1.376       .  A
C1423      H1435   1.082       .  S
C1424      H1436   1.082       .  S
C1425      C1426   1.374       .  A
C1425      H1437   1.082       .  S
C1426      H1438   1.082       .  S
C1427      C1428   1.371       .  A
C1427      H1439   1.082       .  S
C1428      H1440   1.082       .  S
C1429      C1719   1.483       .  S
C1430      C1749   1.498       .  S
C1431      C1726   1.487       .  S
C1432      C1839   1.491       .  S
N1443      N1444   1.319   1_556  A
N1443      C1447   1.351   1_556  A
N1443     Cu1451   2.092       .  S
N1444      C1445   1.339       .  A
N1444     Cu1450   2.048       .  S
C1445      C1446   1.382       .  A
C1445      H1448   1.082       .  S
C1446      C1447   1.393       .  A
C1446      C1706   1.485       .  S
C1447      H1449   1.081   1_554  S
Cu1450     N1453   2.048       .  S
Cu1451     N1461   2.093       .  S
Cu1452     N1454   2.084   1_556  S
Cu1452     N1460   2.087       .  S
N1453      N1454   1.319       .  A
N1453      C1457   1.339       .  A
N1454      C1455   1.348       .  A
C1455      C1456   1.391       .  A
C1455      H1458   1.082   1_554  S
C1456      C1457   1.382       .  A
C1456      C1699   1.482       .  S
C1457      H1459   1.081       .  S
N1460      N1461   1.326       .  A
N1460      C1464   1.348       .  A
N1461      C1462   1.346       .  A
C1462      C1463   1.384       .  A
C1462      H1465   1.082       .  S
C1463      C1464   1.384       .  A
C1464      H1466   1.082       .  S
N1467      C1472   1.354       .  A
N1467      C1471   1.353       .  A
N1467      H1499   1.037       .  S
N1468      C1475   1.352       .  A
N1468      C1476   1.353       .  A
N1469      C1474   1.352       .  A
N1469      C1473   1.354       .  A
N1469      H1500   1.038       .  S
N1470      C1477   1.353       .  A
N1470      C1478   1.352       .  A
C1471      C1479   1.388       .  A
C1471      C1487   1.417       .  A
C1472      C1488   1.417       .  A
C1472      C1480   1.387       .  A
C1473      C1481   1.387       .  A
C1473      C1490   1.416       .  A
C1474      C1489   1.415       .  A
C1474      C1482   1.387       .  A
C1475      C1487   1.414       .  A
C1475      C1483   1.386       .  A
C1476      C1490   1.414       .  A
C1476      C1484   1.385       .  A
C1477      C1485   1.387       .  A
C1477      C1488   1.415       .  A
C1478      C1486   1.386       .  A
C1478      C1489   1.413       .  A
C1479      C1480   1.376       .  A
C1479      H1491   1.082       .  S
C1480      H1492   1.082       .  S
C1481      C1482   1.375       .  A
C1481      H1493   1.082       .  S
C1482      H1494   1.082       .  S
C1483      C1484   1.375       .  A
C1483      H1495   1.082       .  S
C1484      H1496   1.082       .  S
C1485      C1486   1.372       .  A
C1485      H1497   1.082       .  S
C1486      H1498   1.082       .  S
C1487      C1779   1.485       .  S
C1488      C1736   1.492       .  S
C1489      C1696   1.485       .  S
C1490      C1819   1.490       .  S
N1501      C1506   1.356       .  A
N1501      C1505   1.353       .  A
N1501      H1533   1.040       .  S
N1502      C1509   1.351       .  A
N1502      C1510   1.353       .  A
N1503      C1508   1.352       .  A
N1503      C1507   1.353       .  A
N1503      H1534   1.038       .  S
N1504      C1511   1.351       .  A
N1504      C1512   1.350       .  A
C1505      C1513   1.388       .  A
C1505      C1521   1.415       .  A
C1506      C1522   1.415       .  A
C1506      C1514   1.386       .  A
C1507      C1515   1.387       .  A
C1507      C1524   1.413       .  A
C1508      C1523   1.413       .  A
C1508      C1516   1.388       .  A
C1509      C1521   1.413       .  A
C1509      C1517   1.386       .  A
C1510      C1524   1.413       .  A
C1510      C1518   1.386       .  A
C1511      C1519   1.385       .  A
C1511      C1522   1.412       .  A
C1512      C1520   1.387       .  A
C1512      C1523   1.412       .  A
C1513      C1514   1.371       .  A
C1513      H1525   1.082       .  S
C1514      H1526   1.082       .  S
C1515      C1516   1.374       .  A
C1515      H1527   1.082       .  S
C1516      H1528   1.082       .  S
C1517      C1518   1.373       .  A
C1517      H1529   1.082       .  S
C1518      H1530   1.082       .  S
C1519      C1520   1.372       .  A
C1519      H1531   1.082       .  S
C1520      H1532   1.082       .  S
C1521      C1686   1.486       .  S
C1522      C1709   1.492       .  S
C1523      C1676   1.480       .  S
C1524      C1799   1.486       .  S
N1535      N1536   1.319   1_556  A
N1535      C1539   1.348   1_556  A
N1535     Cu1543   2.075       .  S
N1536      C1537   1.339       .  A
N1536     Cu1542   2.052       .  S
C1537      C1538   1.383       .  A
C1537      H1540   1.081       .  S
C1538      C1539   1.390       .  A
C1538      C1689   1.481       .  S
C1539      H1541   1.082   1_554  S
Cu1542     N1545   2.052       .  S
Cu1543     N1553   2.077       .  S
Cu1544     N1546   2.091   1_556  S
Cu1544     N1552   2.093       .  S
N1545      N1546   1.319       .  A
N1545      C1549   1.339       .  A
N1546      C1547   1.350       .  A
C1547      C1548   1.394       .  A
C1547      H1550   1.081   1_554  S
C1548      C1549   1.384       .  A
C1548      C1729   1.489       .  S
C1549      H1551   1.081       .  S
N1552      N1553   1.326       .  A
N1552      C1556   1.347       .  A
N1553      C1554   1.345       .  A
C1554      C1555   1.381       .  A
C1554      H1557   1.082       .  S
C1555      C1556   1.385       .  A
C1556      H1558   1.082       .  S
N1559      N1560   1.321       .  A
N1559      C1563   1.352       .  A
N1559     Cu1567   2.105       .  S
N1560      C1561   1.338       .  A
N1560     Cu1566   2.046       .  S
C1561      C1562   1.380       .  A
C1561      H1564   1.082       .  S
C1562      C1563   1.393       .  A
C1562      C1669   1.483       .  S
C1563      H1565   1.082       .  S
Cu1566     N1569   2.046       .  S
Cu1567     N1577   2.107       .  S
Cu1568     N1570   2.067       .  S
Cu1568     N1576   2.069       .  S
N1569      N1570   1.317       .  A
N1569      C1573   1.340       .  A
N1570      C1571   1.345       .  A
C1571      C1572   1.389       .  A
C1571      H1574   1.081       .  S
C1572      C1573   1.383       .  A
C1572      C1679   1.478       .  S
C1573      H1575   1.082       .  S
N1576      N1577   1.323       .  A
N1576      C1580   1.342       .  A
N1577      C1578   1.350       .  A
C1578      C1579   1.394       .  A
C1578      H1581   1.081       .  S
C1579      C1580   1.386       .  A
C1579      C1849   1.496       .  S
C1580      H1582   1.079       .  S
N1583      N1584   1.321       .  A
N1583      C1587   1.350   1_455  A
N1583     Cu1591   2.094       .  S
N1584      C1585   1.341   1_455  A
N1584     Cu1590   2.062       .  S
C1585      C1586   1.383       .  A
C1585      H1588   1.081       .  S
C1586      C1587   1.392       .  A
C1586      C1656   1.486       .  S
C1587      H1589   1.082       .  S
Cu1590     N1593   2.061       .  S
Cu1591     N1601   2.095       .  S
Cu1592     N1594   2.074       .  S
Cu1592     N1600   2.076       .  S
N1593      N1594   1.319       .  A
N1593      C1597   1.341       .  A
N1594      C1595   1.347       .  A
C1595      C1596   1.388       .  A
C1595      H1598   1.082       .  S
C1596      C1597   1.384       .  A
C1596      C1716   1.481       .  S
C1597      H1599   1.081       .  S
N1600      N1601   1.323       .  A
N1600      C1604   1.342       .  A
N1601      C1602   1.349       .  A
C1602      C1603   1.392       .  A
C1602      H1605   1.081       .  S
C1603      C1604   1.386       .  A
C1603      C1646   1.492       .  S
C1604      H1606   1.081       .  S
N1607      N1608   1.322       .  A
N1607      C1611   1.349       .  A
N1607     Cu1615   2.088       .  S
N1608      C1609   1.340       .  A
N1608     Cu1614   2.067       .  S
C1609      C1610   1.384       .  A
C1609      H1612   1.082       .  S
C1610      C1611   1.390       .  A
C1610      C1666   1.484       .  S
C1611      H1613   1.081       .  S
Cu1614     N1617   2.065       .  S
Cu1615     N1625   2.088       .  S
Cu1616     N1618   2.071       .  S
Cu1616     N1624   2.073       .  S
N1617      N1618   1.320       .  A
N1617      C1621   1.346       .  A
N1618      C1619   1.344       .  A
C1619      C1620   1.384       .  A
C1619      H1622   1.082       .  S
C1620      C1621   1.383       .  A
C1621      H1623   1.082       .  S
N1624      N1625   1.323       .  A
N1624      C1628   1.343       .  A
N1625      C1626   1.348       .  A
C1626      C1627   1.389       .  A
C1626      H1629   1.081       .  S
C1627      C1628   1.385       .  A
C1627      C1659   1.486       .  S
C1628      H1630   1.082       .  S
O1631     Cu1639   2.014       .  S
O1631      C1641   1.278       .  A
O1632     Cu1639   2.019       .  S
O1632      C1642   1.279       .  A
O1633     Cu1639   2.020       .  S
O1633      C1643   1.279       .  A
O1634     Cu1639   2.020       .  S
O1634      C1644   1.280       .  A
O1635     Cu1640   2.002       .  S
O1635      C1644   1.277       .  A
O1636     Cu1640   2.005       .  S
O1636      C1643   1.278       .  A
O1637     Cu1640   2.007       .  S
O1637      C1642   1.278       .  A
O1638     Cu1640   2.003       .  S
O1638      C1641   1.278       .  A
Cu1639    Cu1640   2.367       .  S
C1641      C2009   1.485       .  S
C1642      C1649   1.489       .  S
C1643      C1889   1.487       .  S
C1644      C1759   1.485       .  S
C1645      C1646   1.407       .  A
C1645      C1650   1.397       .  A
C1645      H1652   1.082       .  S
C1646      C1647   1.410       .  A
C1647      C1648   1.403       .  A
C1647      F1654   1.356       .  S
C1648      C1649   1.407       .  A
C1648      H1653   1.083       .  S
C1649      C1650   1.409       .  A
C1650      F1651   1.357       .  S
C1655      C1656   1.405       .  A
C1655      C1660   1.403       .  A
C1655      H1662   1.083       .  S
C1656      C1657   1.409       .  A
C1657      C1658   1.397       .  A
C1657      F1664   1.357       .  S
C1658      C1659   1.405       .  A
C1658      H1663   1.083       .  S
C1659      C1660   1.409       .  A
C1660      F1661   1.356       .  S
C1665      C1666   1.404       .  A
C1665      C1670   1.393       .  A
C1665      H1672   1.083       .  S
C1666      C1667   1.409       .  A
C1667      C1668   1.404       .  A
C1667      F1674   1.356       .  S
C1668      C1669   1.405       .  A
C1668      H1673   1.083       .  S
C1669      C1670   1.408       .  A
C1670      F1671   1.357       .  S
C1675      C1676   1.401       .  A
C1675      C1680   1.396       .  A
C1675      H1682   1.083       .  S
C1676      C1677   1.401       .  A
C1677      C1678   1.395       .  A
C1677      F1684   1.358       .  S
C1678      C1679   1.407       .  A
C1678      H1683   1.082       .  S
C1679      C1680   1.408       .  A
C1680      F1681   1.356       .  S
C1685      C1686   1.400       .  A
C1685      C1690   1.393       .  A
C1685      H1692   1.084       .  S
C1686      C1687   1.406       .  A
C1687      C1688   1.400       .  A
C1687      F1694   1.357       .  S
C1688      C1689   1.406       .  A
C1688      H1693   1.083       .  S
C1689      C1690   1.410       .  A
C1690      F1691   1.356       .  S
C1695      C1696   1.400       .  A
C1695      C1700   1.394       .  A
C1695      H1702   1.084       .  S
C1696      C1697   1.404       .  A
C1697      C1698   1.399       .  A
C1697      F1704   1.357       .  S
C1698      C1699   1.406       .  A
C1698      H1703   1.082       .  S
C1699      C1700   1.411       .  A
C1700      F1701   1.357       .  S
C1705      C1706   1.407       .  A
C1705      C1710   1.395       .  A
C1705      H1712   1.082       .  S
C1706      C1707   1.408       .  A
C1707      C1708   1.403       .  A
C1707      F1714   1.357       .  S
C1708      C1709   1.406       .  A
C1708      H1713   1.083       .  S
C1709      C1710   1.404       .  A
C1710      F1711   1.358       .  S
C1715      C1716   1.405       .  A
C1715      C1720   1.399       .  A
C1715      H1722   1.083       .  S
C1716      C1717   1.410       .  A
C1717      C1718   1.397       .  A
C1717      F1724   1.357       .  S
C1718      C1719   1.400       .  A
C1718      H1723   1.083       .  S
C1719      C1720   1.404       .  A
C1720      F1721   1.357       .  S
C1725      C1726   1.403       .  A
C1725      C1730   1.401       .  A
C1725      H1732   1.083       .  S
C1726      C1727   1.402       .  A
C1727      C1728   1.396       .  A
C1727      F1734   1.358       .  S
C1728      C1729   1.409       .  A
C1728      H1733   1.082       .  S
C1729      C1730   1.410       .  A
C1730      F1731   1.356       .  S
C1735      C1736   1.406       .  A
C1735      C1740   1.403       .  A
C1735      H1742   1.083       .  S
C1736      C1737   1.403       .  A
C1737      C1738   1.395       .  A
C1737      F1744   1.358       .  S
C1738      C1739   1.407       .  A
C1738      H1743   1.082       .  S
C1739      C1740   1.410       .  A
C1740      F1741   1.356       .  S
C1745      C1746   1.408       .  A
C1745      C1750   1.396       .  A
C1745      H1752   1.082       .  S
C1746      C1747   1.410       .  A
C1747      C1748   1.407       .  A
C1747      F1754   1.356   1_554  S
C1748      C1749   1.408       .  A
C1748      H1753   1.083       .  S
C1749      C1750   1.404       .  A
C1750      F1751   1.358       .  S
C1755      C1756   1.404       .  A
C1755      C1760   1.397       .  A
C1755      H1762   1.083       .  S
C1756      C1757   1.410       .  A
C1757      C1758   1.401       .  A
C1757      F1764   1.357       .  S
C1758      C1759   1.406       .  A
C1758      H1763   1.083       .  S
C1759      C1760   1.409       .  A
C1760      F1761   1.357       .  S
C1765      C1766   1.405       .  A
C1765      C1770   1.403       .  A
C1765      H1772   1.083       .  S
C1766      C1767   1.405       .  A
C1767      C1768   1.391       .  A
C1767      F1774   1.357       .  S
C1768      C1769   1.404       .  A
C1768      H1773   1.082       .  S
C1769      C1770   1.409       .  A
C1770      F1771   1.356       .  S
C1775      C1776   1.411       .  A
C1775      C1780   1.401       .  A
C1775      H1782   1.082       .  S
C1776      C1777   1.410       .  A
C1777      C1778   1.398       .  A
C1777      F1784   1.355       .  S
C1778      C1779   1.400       .  A
C1778      H1783   1.083       .  S
C1779      C1780   1.402       .  A
C1780      F1781   1.358       .  S
C1785      C1786   1.404       .  A
C1785      C1790   1.404       .  A
C1785      H1792   1.083       .  S
C1786      C1787   1.405       .  A
C1787      C1788   1.394       .  A
C1787      F1794   1.357       .  S
C1788      C1789   1.405       .  A
C1788      H1793   1.082       .  S
C1789      C1790   1.411       .  A
C1790      F1791   1.356       .  S
C1795      C1796   1.407       .  A
C1795      C1800   1.397       .  A
C1795      H1802   1.083       .  S
C1796      C1797   1.410       .  A
C1797      C1798   1.400       .  A
C1797      F1804   1.356       .  S
C1798      C1799   1.402       .  A
C1798      H1803   1.083       .  S
C1799      C1800   1.402       .  A
C1800      F1801   1.357       .  S
C1805      C1806   1.406       .  A
C1805      C1810   1.407       .  A
C1805      H1812   1.083       .  S
C1806      C1807   1.406       .  A
C1807      C1808   1.395       .  A
C1807      F1814   1.357       .  S
C1808      C1809   1.404       .  A
C1808      H1813   1.083       .  S
C1809      C1810   1.410       .  A
C1810      F1811   1.357       .  S
C1815      C1816   1.409       .  A
C1815      C1820   1.401       .  A
C1815      H1822   1.082       .  S
C1816      C1817   1.410       .  A
C1817      C1818   1.401       .  A
C1817      F1824   1.356       .  S
C1818      C1819   1.403       .  A
C1818      H1823   1.083       .  S
C1819      C1820   1.403       .  A
C1820      F1821   1.358       .  S
C1825      C1826   1.407       .  A
C1825      C1830   1.403       .  A
C1825      H1832   1.083       .  S
C1826      C1827   1.408       .  A
C1827      C1828   1.398       .  A
C1827      F1834   1.357       .  S
C1828      C1829   1.404       .  A
C1828      H1833   1.083       .  S
C1829      C1830   1.408       .  A
C1830      F1831   1.357       .  S
C1835      C1836   1.408       .  A
C1835      C1840   1.400       .  A
C1835      H1842   1.083       .  S
C1836      C1837   1.409       .  A
C1837      C1838   1.402       .  A
C1837      F1844   1.357       .  S
C1838      C1839   1.404       .  A
C1838      H1843   1.083       .  S
C1839      C1840   1.404       .  A
C1840      F1841   1.357       .  S
C1845      C1846   1.405       .  A
C1845      C1850   1.398       .  A
C1845      H1852   1.083       .  S
C1846      C1847   1.409       .  A
C1847      C1848   1.404       .  A
C1847      F1854   1.357       .  S
C1848      C1849   1.408       .  A
C1848      H1853   1.082       .  S
C1849      C1850   1.413       .  A
C1850      F1851   1.356       .  S
C1855      C1856   1.406       .  A
C1855      C1860   1.398       .  A
C1855      H1862   1.083       .  S
C1856      C1857   1.411       .  A
C1857      C1858   1.406       .  A
C1857      F1864   1.357       .  S
C1858      C1859   1.409       .  A
C1858      H1863   1.082       .  S
C1859      C1860   1.409       .  A
C1860      F1861   1.356       .  S
C1865      C1866   1.408       .  A
C1865      C1870   1.398       .  A
C1865      H1872   1.081       .  S
C1866      C1867   1.413       .  A
C1867      C1868   1.401       .  A
C1867      F1874   1.355       .  S
C1868      C1869   1.405       .  A
C1868      H1873   1.083       .  S
C1869      C1870   1.408       .  A
C1870      F1871   1.358       .  S
C1875      C1876   1.406       .  A
C1875      C1880   1.396       .  A
C1875      H1882   1.083       .  S
C1876      C1877   1.410       .  A
C1877      C1878   1.406       .  A
C1877      F1884   1.357       .  S
C1878      C1879   1.407       .  A
C1878      H1883   1.083       .  S
C1879      C1880   1.408       .  A
C1880      F1881   1.357       .  S
C1885      C1886   1.406       .  A
C1885      C1890   1.401       .  A
C1885      H1892   1.082       .  S
C1886      C1887   1.409       .  A
C1887      C1888   1.398       .  A
C1887      F1894   1.356       .  S
C1888      C1889   1.406       .  A
C1888      H1893   1.083       .  S
C1889      C1890   1.409       .  A
C1890      F1891   1.357       .  S
C1895      C1896   1.406       .  A
C1895      C1900   1.393       .  A
C1895      H1902   1.082       .  S
C1896      C1897   1.410       .  A
C1897      C1898   1.402       .  A
C1897      F1904   1.356       .  S
C1898      C1899   1.404       .  A
C1898      H1903   1.083       .  S
C1899      C1900   1.405       .  A
C1900      F1901   1.357       .  S
C1905      C1906   1.408       .  A
C1905      C1910   1.404       .  A
C1905      H1912   1.082       .  S
C1906      C1907   1.411       .  A
C1907      C1908   1.397       .  A
C1907      F1914   1.355       .  S
C1908      C1909   1.405       .  A
C1908      H1913   1.083       .  S
C1909      C1910   1.410       .  A
C1910      F1911   1.357       .  S
C1915      C1916   1.406       .  A
C1915      C1920   1.394       .  A
C1915      H1922   1.082       .  S
C1916      C1917   1.410       .  A
C1917      C1918   1.404       .  A
C1917      F1924   1.356       .  S
C1918      C1919   1.406       .  A
C1918      H1923   1.083       .  S
C1919      C1920   1.405       .  A
C1920      F1921   1.357       .  S
C1925      C1926   1.402       .  A
C1925      C1930   1.400       .  A
C1925      H1932   1.083       .  S
C1926      C1927   1.401       .  A
C1927      C1928   1.396       .  A
C1927      F1934   1.357       .  S
C1928      C1929   1.407       .  A
C1928      H1933   1.082       .  S
C1929      C1930   1.410       .  A
C1930      F1931   1.356       .  S
C1935      C1936   1.405       .  A
C1935      C1940   1.395       .  A
C1935      H1942   1.083       .  S
C1936      C1937   1.407       .  A
C1937      C1938   1.402       .  A
C1937      F1944   1.357       .  S
C1938      C1939   1.404       .  A
C1938      H1943   1.083       .  S
C1939      C1940   1.404       .  A
C1940      F1941   1.358       .  S
C1945      C1946   1.400       .  A
C1945      C1950   1.398       .  A
C1945      H1952   1.083       .  S
C1946      C1947   1.403       .  A
C1947      C1948   1.400       .  A
C1947      F1954   1.357       .  S
C1948      C1949   1.409       .  A
C1948      H1953   1.082       .  S
C1949      C1950   1.412       .  A
C1950      F1951   1.356       .  S
C1955      C1956   1.400       .  A
C1955      C1960   1.395       .  A
C1955      H1962   1.084       .  S
C1956      C1957   1.406       .  A
C1957      C1958   1.404       .  A
C1957      F1964   1.357       .  S
C1958      C1959   1.408       .  A
C1958      H1963   1.083       .  S
C1959      C1960   1.410       .  A
C1960      F1961   1.356       .  S
C1965      C1966   1.407       .  A
C1965      C1970   1.402       .  A
C1965      H1972   1.083       .  S
C1966      C1967   1.410       .  A
C1967      C1968   1.395       .  A
C1967      F1974   1.357       .  S
C1968      C1969   1.399       .  A
C1968      H1973   1.084       .  S
C1969      C1970   1.404       .  A
C1970      F1971   1.357       .  S
C1975      C1976   1.406       .  A
C1975      C1980   1.402       .  A
C1975      H1982   1.083       .  S
C1976      C1977   1.409       .  A
C1977      C1978   1.397       .  A
C1977      F1984   1.357       .  S
C1978      C1979   1.402       .  A
C1978      H1983   1.083       .  S
C1979      C1980   1.406       .  A
C1980      F1981   1.357       .  S
C1985      C1986   1.403       .  A
C1985      C1990   1.400       .  A
C1985      H1992   1.083       .  S
C1986      C1987   1.402       .  A
C1987      C1988   1.395       .  A
C1987      F1994   1.358       .  S
C1988      C1989   1.406       .  A
C1988      H1993   1.083       .  S
C1989      C1990   1.407       .  A
C1990      F1991   1.357       .  S
C1995      C1996   1.401       .  A
C1995      C2000   1.393       .  A
C1995      H2002   1.084       .  S
C1996      C1997   1.409       .  A
C1997      C1998   1.404       .  A
C1997      F2004   1.357       .  S
C1998      C1999   1.405       .  A
C1998      H2003   1.083       .  S
C1999      C2000   1.407       .  A
C2000      F2001   1.357       .  S
C2005      C2006   1.406       .  A
C2005      C2010   1.400       .  A
C2005      H2012   1.082       .  S
C2006      C2007   1.410       .  A
C2007      C2008   1.396       .  A
C2007      F2014   1.356       .  S
C2008      C2009   1.405       .  A
C2008      H2013   1.083       .  S
C2009      C2010   1.409       .  A
C2010      F2011   1.357       .  S
C2015      C2016   1.403       .  A
C2015      C2020   1.393       .  A
C2015      H2022   1.082       .  S
C2016      C2017   1.408       .  A
C2017      C2018   1.405       .  A
C2017      F2024   1.357       .  S
C2018      C2019   1.408       .  A
C2018      H2023   1.082       .  S
C2019      C2020   1.410       .  A
C2020      F2021   1.356       .  S
C2025      C2026   1.402       .  A
C2025      C2030   1.399       .  A
C2025      H2032   1.083       .  S
C2026      C2027   1.403       .  A
C2027      C2028   1.395       .  A
C2027      F2034   1.358       .  S
C2028      C2029   1.406       .  A
C2028      H2033   1.083       .  S
C2029      C2030   1.409       .  A
C2030      F2031   1.357       .  S
C2035      C2036   1.407       .  A
C2035      C2040   1.403       .  A
C2035      H2042   1.083       .  S
C2036      C2037   1.410       .  A
C2037      C2038   1.397       .  A
C2037      F2044   1.358       .  S
C2038      C2039   1.405       .  A
C2038      H2043   1.082       .  S
C2039      C2040   1.409       .  A
C2040      F2041   1.356       .  S
C2045      C2046   1.408       .  A
C2045      C2050   1.394       .  A
C2045      H2052   1.081       .  S
C2046      C2047   1.411       .  A
C2047      C2048   1.407       .  A
C2047      F2054   1.356       .  S
C2048      C2049   1.407       .  A
C2048      H2053   1.083       .  S
C2049      C2050   1.405       .  A
C2050      F2051   1.357       .  S
C2055      C2056   1.409       .  A
C2055      C2060   1.400       .  A
C2055      H2062   1.082       .  S
C2056      C2057   1.409       .  A
C2057      C2058   1.401       .  A
C2057      F2064   1.356       .  S
C2058      C2059   1.402       .  A
C2058      H2063   1.083       .  S
C2059      C2060   1.404       .  A
C2060      F2061   1.357       .  S
C2065      C2066   1.408       .  A
C2065      C2070   1.403       .  A
C2065      H2072   1.082       .  S
C2066      C2067   1.410       .  A
C2067      C2068   1.398       .  A
C2067      F2074   1.356       .  S
C2068      C2069   1.407       .  A
C2068      H2073   1.083       .  S
C2069      C2070   1.409       .  A
C2070      F2071   1.357       .  S
C2075      C2076   1.404       .  A
C2075      C2080   1.406       .  A
C2075      H2082   1.083       .  S
C2076      C2077   1.407       .  A
C2077      C2078   1.397       .  A
C2077      F2084   1.358       .  S
C2078      C2079   1.407       .  A
C2078      H2083   1.081       .  S
C2079      C2080   1.413       .  A
C2080      F2081   1.355       .  S
C2085      C2086   1.401       .  A
C2085      C2090   1.398       .  A
C2085      H2092   1.083       .  S
C2086      C2087   1.404       .  A
C2087      C2088   1.401       .  A
C2087      F2094   1.357       .  S
C2088      C2089   1.407       .  A
C2088      H2093   1.083       .  S
C2089      C2090   1.411       .  A
C2090      F2091   1.357       .  S
C2095      C2096   1.408       .  A
C2095      C2100   1.405       .  A
C2095      H2102   1.082       .  S
C2096      C2097   1.409       .  A
C2097      C2098   1.399       .  A
C2097      F2104   1.356       .  S
C2098      C2099   1.407       .  A
C2098      H2103   1.083       .  S
C2099      C2100   1.409       .  A
C2100      F2101   1.357       .  S
C2105      C2106   1.406       .  A
C2105      C2110   1.407       .  A
C2105      H2112   1.083       .  S
C2106      C2107   1.408       .  A
C2107      C2108   1.398       .  A
C2107      F2114   1.357       .  S
C2108      C2109   1.405       .  A
C2108      H2113   1.083       .  S
C2109      C2110   1.410       .  A
C2110      F2111   1.356       .  S
C2115      C2116   1.409       .  A
C2115      C2120   1.405       .  A
C2115      H2122   1.083       .  S
C2116      C2117   1.413       .  A
C2117      C2118   1.398       .  A
C2117      F2124   1.356       .  S
C2118      C2119   1.401       .  A
C2118      H2123   1.083       .  S
C2119      C2120   1.405       .  A
C2120      F2121   1.357       .  S
C2125      C2126   1.409       .  A
C2125      C2130   1.404       .  A
C2125      H2132   1.082       .  S
C2126      C2127   1.411       .  A
C2127      C2128   1.394       .  A
C2127      F2134   1.355       .  S
C2128      C2129   1.402       .  A
C2128      H2133   1.083       .  S
C2129      C2130   1.408       .  A
C2130      F2131   1.357       .  S
C2135      C2136   1.406       .  A
C2135      C2140   1.397       .  A
C2135      H2142   1.083       .  S
C2136      C2137   1.410       .  A
C2137      C2138   1.405       .  A
C2137      F2144   1.356       .  S
C2138      C2139   1.405       .  A
C2138      H2143   1.083       .  S
C2139      C2140   1.407       .  A
C2140      F2141   1.358       .  S
C2145      C2146   1.400       .  A
C2145      C2150   1.395       .  A
C2145      H2152   1.084       .  S
C2146      C2147   1.404       .  A
C2147      C2148   1.402       .  A
C2147      F2154   1.357       .  S
C2148      C2149   1.407       .  A
C2148      H2153   1.083       .  S
C2149      C2150   1.410       .  A
C2150      F2151   1.357       .  S
C2155      C2156   1.404       .  A
C2155      C2160   1.397       .  A
C2155      H2162   1.083       .  S
C2156      C2157   1.411       .  A
C2157      C2158   1.395       .  A
C2157      F2164   1.357       .  S
C2158      C2159   1.400       .  A
C2158      H2163   1.084       .  S
C2159      C2160   1.403       .  A
C2160      F2161   1.357       .  S
C2165      C2166   1.406       .  A
C2165      C2170   1.400       .  A
C2165      H2172   1.083       .  S
C2166      C2167   1.411       .  A
C2167      C2168   1.399       .  A
C2167      F2174   1.357       .  S
C2168      C2169   1.400       .  A
C2168      H2173   1.083       .  S
C2169      C2170   1.405       .  A
C2170      F2171   1.357       .  S
C2175      C2176   1.402       .  A
C2175      C2180   1.399       .  A
C2175      H2182   1.083       .  S
C2176      C2177   1.403       .  A
C2177      C2178   1.394       .  A
C2177      F2184   1.358       .  S
C2178      C2179   1.406       .  A
C2178      H2183   1.083       .  S
C2179      C2180   1.409       .  A
C2180      F2181   1.356       .  S
C2185      C2186   1.404       .  A
C2185      C2190   1.393       .  A
C2185      H2192   1.082       .  S
C2186      C2187   1.408       .  A
C2187      C2188   1.407       .  A
C2187      F2194   1.357       .  S
C2188      C2189   1.410       .  A
C2188      H2193   1.082       .  S
C2189      C2190   1.408       .  A
C2190      F2191   1.356       .  S
C2195      C2196   1.408       .  A
C2195      C2200   1.399       .  A
C2195      H2202   1.082       .  S
C2196      C2197   1.410       .  A
C2197      C2198   1.397       .  A
C2197      F2204   1.356       .  S
C2198      C2199   1.401       .  A
C2198      H2203   1.083       .  S
C2199      C2200   1.402       .  A
C2200      F2201   1.357       .  S
C2205      C2206   1.405       .  A
C2205      C2210   1.391       .  A
C2205      H2212   1.081       .  S
C2206      C2207   1.411       .  A
C2207      C2208   1.405       .  A
C2207      F2214   1.356       .  S
C2208      C2209   1.406       .  A
C2208      H2213   1.083       .  S
C2209      C2210   1.405       .  A
C2210      F2211   1.357       .  S
C2215      C2216   1.407       .  A
C2215      C2220   1.403       .  A
C2215      H2222   1.083       .  S
C2216      C2217   1.408       .  A
C2217      C2218   1.394       .  A
C2217      F2224   1.357       .  S
C2218      C2219   1.401       .  A
C2218      H2223   1.084       .  S
C2219      C2220   1.406       .  A
C2220      F2221   1.357       .  S
C2225      C2226   1.405       .  A
C2225      C2230   1.401       .  A
C2225      H2232   1.083       .  S
C2226      C2227   1.400       .  A
C2227      C2228   1.393       .  A
C2227      F2234   1.357       .  S
C2228      C2229   1.408       .  A
C2228      H2233   1.082       .  S
C2229      C2230   1.410       .  A
C2230      F2231   1.356       .  S
C2235      C2236   1.400       .  A
C2235      C2240   1.395       .  A
C2235      H2242   1.084       .  S
C2236      C2237   1.406       .  A
C2237      C2238   1.403       .  A
C2237      F2244   1.357       .  S
C2238      C2239   1.407       .  A
C2238      H2243   1.083       .  S
C2239      C2240   1.409       .  A
C2240      F2241   1.356       .  S
C2245      C2246   1.403       .  A
C2245      C2250   1.402       .  A
C2245      H2252   1.083       .  S
C2246      C2247   1.406       .  A
C2247      C2248   1.400       .  A
C2247      F2254   1.357       .  S
C2248      C2249   1.405       .  A
C2248      H2253   1.083       .  S
C2249      C2250   1.411       .  A
C2250      F2251   1.357       .  S
C2255      C2256   1.403       .  A
C2255      C2260   1.403       .  A
C2255      H2262   1.083       .  S
C2256      C2257   1.401       .  A
C2257      C2258   1.396       .  A
C2257      F2264   1.358       .  S
C2258      C2259   1.408       .  A
C2258      H2263   1.082       .  S
C2259      C2260   1.410       .  A
C2260      F2261   1.356       .  S
C2265      C2266   1.404       .  A
C2265      C2270   1.393       .  A
C2265      H2272   1.082       .  S
C2266      C2267   1.410       .  A
C2267      C2268   1.404       .  A
C2267      F2274   1.356       .  S
C2268      C2269   1.407       .  A
C2268      H2273   1.083       .  S
C2269      C2270   1.408       .  A
C2270      F2271   1.357       .  S
C2275      C2276   1.407       .  A
C2275      C2280   1.400       .  A
C2275      H2282   1.083       .  S
C2276      C2277   1.411       .  A
C2277      C2278   1.395       .  A
C2277      F2284   1.356       .  S
C2278      C2279   1.398       .  A
C2278      H2283   1.083       .  S
C2279      C2280   1.403       .  A
C2280      F2281   1.357       .  S
C2285      C2286   1.404       .  A
C2285      C2290   1.393       .  A
C2285      H2292   1.083       .  S
C2286      C2287   1.407       .  A
C2287      C2288   1.404       .  A
C2287      F2294   1.357       .  S
C2288      C2289   1.408       .  A
C2288      H2293   1.083       .  S
C2289      C2290   1.406       .  A
C2290      F2291   1.357       .  S
C2295      C2296   1.404       .  A
C2295      C2300   1.398       .  A
C2295      H2302   1.083       .  S
C2296      C2297   1.408       .  A
C2297      C2298   1.396       .  A
C2297      F2304   1.357       .  S
C2298      C2299   1.401       .  A
C2298      H2303   1.083       .  S
C2299      C2300   1.406       .  A
C2300      F2301   1.358       .  S
C2305      C2306   1.406       .  A
C2305      C2310   1.396       .  A
C2305      H2312   1.083       .  S
C2306      C2307   1.409       .  A
C2307      C2308   1.400       .  A
C2307      F2314   1.357       .  S
C2308      C2309   1.404       .  A
C2308      H2313   1.083       .  S
C2309      C2310   1.407       .  A
C2310      F2311   1.357       .  S
C2315      C2316   1.408       .  A
C2315      C2320   1.404       .  A
C2315      H2322   1.083       .  S
C2316      C2317   1.408       .  A
C2317      C2318   1.396       .  A
C2317      F2324   1.357       .  S
C2318      C2319   1.407       .  A
C2318      H2323   1.081       .  S
C2319      C2320   1.410       .  A
C2320      F2321   1.356       .  S
C2325      C2326   1.406       .  A
C2325      C2330   1.398       .  A
C2325      H2332   1.083       .  S
C2326      C2327   1.411       .  A
C2327      C2328   1.406       .  A
C2327      F2334   1.357       .  S
C2328      C2329   1.409       .  A
C2328      H2333   1.083       .  S
C2329      C2330   1.408       .  A
C2330      F2331   1.356       .  S
C2335      C2336   1.405       .  A
C2335      C2340   1.397       .  A
C2335      H2342   1.083       .  S
C2336      C2337   1.409       .  A
C2337      C2338   1.400       .  A
C2337      F2344   1.357       .  S
C2338      C2339   1.406       .  A
C2338      H2343   1.083       .  S
C2339      C2340   1.408       .  A
C2340      F2341   1.356       .  S
C2345      C2346   1.407       .  A
C2345      C2350   1.400       .  A
C2345      H2352   1.083       .  S
C2346      C2347   1.410       .  A
C2347      C2348   1.402       .  A
C2347      F2354   1.357       .  S
C2348      C2349   1.405       .  A
C2348      H2353   1.083       .  S
C2349      C2350   1.410       .  A
C2350      F2351   1.357       .  S
C2355      C2356   1.409       .  A
C2355      C2360   1.405       .  A
C2355      H2362   1.083       .  S
C2356      C2357   1.410       .  A
C2357      C2358   1.400       .  A
C2357      F2364   1.357       .  S
C2358      C2359   1.407       .  A
C2358      H2363   1.082       .  S
C2359      C2360   1.410       .  A
C2360      F2361   1.356       .  S
C2365      C2366   1.409       .  A
C2365      C2370   1.400       .  A
C2365      H2372   1.081       .  S
C2366      C2367   1.413       .  A
C2367      C2368   1.405       .  A
C2367      F2374   1.355       .  S
C2368      C2369   1.407       .  A
C2368      H2373   1.083       .  S
C2369      C2370   1.409       .  A
C2370      F2371   1.357       .  S
C2375      C2376   1.405       .  A
C2375      C2380   1.405       .  A
C2375      H2382   1.083       .  S
C2376      C2377   1.408       .  A
C2377      C2378   1.397       .  A
C2377      F2384   1.357       .  S
C2378      C2379   1.405       .  A
C2378      H2383   1.083       .  S
C2379      C2380   1.410       .  A
C2380      F2381   1.356       .  S
C2385      C2386   1.407       .  A
C2385      C2390   1.402       .  A
C2385      H2392   1.083       .  S
C2386      C2387   1.409       .  A
C2387      C2388   1.395       .  A
C2387      F2394   1.357       .  S
C2388      C2389   1.404       .  A
C2388      H2393   1.083       .  S
C2389      C2390   1.408       .  A
C2390      F2391   1.357       .  S
C2395      C2396   1.409       .  A
C2395      C2400   1.405       .  A
C2395      H2402   1.082       .  S
C2396      C2397   1.410       .  A
C2397      C2398   1.396       .  A
C2397      F2404   1.356       .  S
C2398      C2399   1.402       .  A
C2398      H2403   1.083       .  S
C2399      C2400   1.407       .  A
C2400      F2401   1.357       .  S
C2405      C2406   1.402       .  A
C2405      C2410   1.394       .  A
C2405      H2412   1.084       .  S
C2406      C2407   1.406       .  A
C2407      C2408   1.401       .  A
C2407      F2414   1.357       .  S
C2408      C2409   1.405       .  A
C2408      H2413   1.083       .  S
C2409      C2410   1.409       .  A
C2410      F2411   1.357       .  S
C2415      C2416   1.407       .  A
C2415      C2420   1.392       .  A
C2415      H2422   1.082       .  S
C2416      C2417   1.409       .  A
C2417      C2418   1.402       .  A
C2417      F2424   1.357       .  S
C2418      C2419   1.403       .  A
C2418      H2423   1.083       .  S
C2419      C2420   1.399       .  A
C2420      F2421   1.358       .  S
C2425      C2426   1.403       .  A
C2425      C2430   1.399       .  A
C2425      H2432   1.083       .  S
C2426      C2427   1.405       .  A
C2427      C2428   1.399       .  A
C2427      F2434   1.357       .  S
C2428      C2429   1.405       .  A
C2428      H2433   1.083       .  S
C2429      C2430   1.409       .  A
C2430      F2431   1.357       .  S
C2435      C2436   1.400       .  A
C2435      C2440   1.395       .  A
C2435      H2442   1.084       .  S
C2436      C2437   1.404       .  A
C2437      C2438   1.401       .  A
C2437      F2444   1.357       .  S
C2438      C2439   1.406       .  A
C2438      H2443   1.083       .  S
C2439      C2440   1.409       .  A
C2440      F2441   1.357       .  S
C2445      C2446   1.406       .  A
C2445      C2450   1.392       .  A
C2445      H2452   1.082       .  S
C2446      C2447   1.411       .  A
C2447      C2448   1.401       .  A
C2447      F2454   1.356       .  S
C2448      C2449   1.403       .  A
C2448      H2453   1.083       .  S
C2449      C2450   1.403       .  A
C2450      F2451   1.358       .  S
C2455      C2456   1.401       .  A
C2455      C2460   1.402       .  A
C2455      H2462   1.083       .  S
C2456      C2457   1.401       .  A
C2457      C2458   1.397       .  A
C2457      F2464   1.357       .  S
C2458      C2459   1.408       .  A
C2458      H2463   1.082       .  S
C2459      C2460   1.413       .  A
C2460      F2461   1.356       .  S
C2465      C2466   1.406       .  A
C2465      C2470   1.404       .  A
C2465      H2472   1.083       .  S
C2466      C2467   1.402       .  A
C2467      C2468   1.391       .  A
C2467      F2474   1.358       .  S
C2468      C2469   1.406       .  A
C2468      H2473   1.082       .  S
C2469      C2470   1.408       .  A
C2470      F2471   1.357       .  S
C2475      C2476   1.399       .  A
C2475      C2480   1.396       .  A
C2475      H2482   1.084       .  S
C2476      C2477   1.404       .  A
C2477      C2478   1.404       .  A
C2477      F2484   1.357       .  S
C2478      C2479   1.410       .  A
C2478      H2483   1.082       .  S
C2479      C2480   1.413       .  A
C2480      F2481   1.355       .  S
C2485      C2486   1.408       .  A
C2485      C2490   1.398       .  A
C2485      H2492   1.080       .  S
C2486      C2487   1.414       .  A
C2487      C2488   1.403       .  A
C2487      F2494   1.355       .  S
C2488      C2489   1.406       .  A
C2488      H2493   1.083       .  S
C2489      C2490   1.408       .  A
C2490      F2491   1.357       .  S
C2495      C2496   1.401       .  A
C2495      C2500   1.393       .  A
C2495      H2502   1.083       .  S
C2496      C2497   1.406       .  A
C2497      C2498   1.404       .  A
C2497      F2504   1.357       .  S
C2498      C2499   1.408       .  A
C2498      H2503   1.082       .  S
C2499      C2500   1.410       .  A
C2500      F2501   1.356       .  S
C2505      C2506   1.406       .  A
C2505      C2510   1.403       .  A
C2505      H2512   1.083       .  S
C2506      C2507   1.410       .  A
C2507      C2508   1.399       .  A
C2507      F2514   1.357       .  S
C2508      C2509   1.402       .  A
C2508      H2513   1.083       .  S
C2509      C2510   1.407       .  A
C2510      F2511   1.357       .  S
C2515      C2516   1.404       .  A
C2515      C2520   1.399       .  A
C2515      H2522   1.083       .  S
C2516      C2517   1.410       .  A
C2517      C2518   1.406       .  A
C2517      F2524   1.357       .  S
C2518      C2519   1.408       .  A
C2518      H2523   1.083       .  S
C2519      C2520   1.411       .  A
C2520      F2521   1.357       .  S
C2525      C2526   1.402       .  A
C2525      C2530   1.394       .  A
C2525      H2532   1.083       .  S
C2526      C2527   1.408       .  A
C2527      C2528   1.404       .  A
C2527      F2534   1.357       .  S
C2528      C2529   1.407       .  A
C2528      H2533   1.083       .  S
C2529      C2530   1.409       .  A
C2530      F2531   1.357       .  S
C2535      C2536   1.408       .  A
C2535      C2540   1.401       .  A
C2535      H2542   1.082       .  S
C2536      C2537   1.413       .  A
C2537      C2538   1.398       .  A
C2537      F2544   1.356       .  S
C2538      C2539   1.400       .  A
C2538      H2543   1.083       .  S
C2539      C2540   1.405       .  A
C2540      F2541   1.357       .  S
C2545      C2546   1.407       .  A
C2545      C2550   1.403       .  A
C2545      H2552   1.082       .  S
C2546      C2547   1.409       .  A
C2547      C2548   1.397       .  A
C2547      F2554   1.356       .  S
C2548      C2549   1.406       .  A
C2548      H2553   1.083       .  S
C2549      C2550   1.410       .  A
C2550      F2551   1.357       .  S
C2555      C2556   1.405       .  A
C2555      C2560   1.396       .  A
C2555      H2562   1.082       .  S
C2556      C2557   1.411       .  A
C2557      C2558   1.404       .  A
C2557      F2564   1.356       .  S
C2558      C2559   1.404       .  A
C2558      H2563   1.083       .  S
C2559      C2560   1.407       .  A
C2560      F2561   1.357       .  S
C2565      C2566   1.407       .  A
C2565      C2570   1.399       .  A
C2565      H2572   1.083       .  S
C2566      C2567   1.408       .  A
C2567      C2568   1.398       .  A
C2567      F2574   1.357       .  S
C2568      C2569   1.403       .  A
C2568      H2573   1.083       .  S
C2569      C2570   1.403       .  A
C2570      F2571   1.357       .  S
C2575      C2576   1.405       .  A
C2575      C2580   1.397       .  A
C2575      H2582   1.083       .  S
C2576      C2577   1.408       .  A
C2577      C2578   1.401       .  A
C2577      F2584   1.356       .  S
C2578      C2579   1.406       .  A
C2578      H2583   1.083       .  S
C2579      C2580   1.410       .  A
C2580      F2581   1.358       .  S
C2585      C2586   1.407       .  A
C2585      C2590   1.396       .  A
C2585      H2592   1.082       .  S
C2586      C2587   1.411       .  A
C2587      C2588   1.405       .  A
C2587      F2594   1.356       .  S
C2588      C2589   1.405       .  A
C2588      H2593   1.083       .  S
C2589      C2590   1.406       .  A
C2590      F2591   1.358       .  S
C2595      C2596   1.406       .  A
C2595      C2600   1.398       .  A
C2595      H2602   1.083       .  S
C2596      C2597   1.408       .  A
C2597      C2598   1.398       .  A
C2597      F2604   1.357       .  S
C2598      C2599   1.402       .  A
C2598      H2603   1.083       .  S
C2599      C2600   1.403       .  A
C2600      F2601   1.357       .  S
