geometry optimzed in LAMMPS
_audit_creation_date              2020-11-30 
_audit_creation_method            'lammps2cif' 
_symmetry_space_group_name_H-M    'P1' 
_symmetry_Int_Tables_number       1 
_symmetry_cell_setting            triclinic 
loop_ 
_symmetry_equiv_pos_as_xyz 
  x,y,z 
_cell_length_a                    31.35331647 
_cell_length_b                    31.007520925380433 
_cell_length_c                    30.78117392003642 
_cell_angle_alpha                 90.14935631866521 
_cell_angle_beta                  90.83449706177922 
_cell_angle_gamma                 89.87778973203068 
loop_ 
_atom_site_label 
_atom_site_type_symbol 
_atom_site_fract_x 
_atom_site_fract_y 
_atom_site_fract_z 
_atom_site_charge 
C1          C  0.00017510  0.01477597  0.95585048     0.01000
C2          C  0.98672581  0.05822367  0.95088132     0.01000
C3          C  0.95254274  0.07368961  0.97609631     0.01000
C4          C  0.92553436  0.04073494  0.99407219     0.01000
C5          C  0.94850404  0.00639259  0.01196360     0.01000
C6          C  0.97549616  0.98679222  0.98123164     0.01000
O7          O  0.08294300  0.17500839  0.85726494    -0.81400
O8          O  0.93381549  0.31004633  0.80982959    -0.81400
O9          O  0.93763538  0.15669124  0.81512748    -0.81400
O10         O  0.04006317  0.30671688  0.81249350    -0.81400
O11         O  0.93005548  0.22314089  0.79252285    -0.81500
O12         O  0.06773694  0.24365027  0.80989642    -0.81400
O13         O  0.97465619  0.34700935  0.85403267    -0.81400
O14         O  0.02823741  0.15103917  0.81962812    -0.81400
C15         C  0.06811057  0.14686863  0.82870099     1.08300
C16         C  0.94519208  0.34704206  0.82408428     1.08200
C17         C  0.91880662  0.18431823  0.79132071     1.08300
C18         C  0.06203698  0.27944970  0.79244978     1.08200
O19         O  0.10716090  0.27382971  0.89114896    -0.81400
O20         O  0.88727967  0.20847955  0.87767857    -0.81500
O21         O  0.02005600  0.16909781  0.91364586    -0.81400
O22         O  0.98634148  0.28805002  0.92638778    -0.81400
O23         O  0.92003035  0.28979787  0.90075489    -0.81400
O24         O  0.04145859  0.23189032  0.93262977    -0.81400
O25         O  0.06476845  0.33075698  0.89978924    -0.81400
O26         O  0.93145269  0.16263442  0.90687771    -0.81400
Co27       Co  0.05368755  0.23805107  0.87024236     1.51500
Co28       Co  0.92442268  0.25564632  0.84627863     1.51700
Co29       Co  0.98069415  0.16613796  0.86312986     1.51600
Co30       Co  0.01493572  0.29441586  0.87086959     1.51500
O31         O  0.98758384  0.23408704  0.85391734    -1.43300
C32         C  0.10290260  0.31373497  0.90501308     1.08200
C33         C  0.89320079  0.17652055  0.90351997     1.08300
C34         C  0.02180140  0.19845780  0.94202484     1.08300
C35         C  0.94719488  0.29728715  0.93069461     1.08200
O36         O  0.84549003  0.06522102  0.16070122    -0.81400
O37         O  0.84699671  0.91128211  0.30431274    -0.81400
O38         O  0.82119652  0.95691667  0.16990633    -0.81400
O39         O  0.81819812  0.05162330  0.30427965    -0.81400
O40         O  0.81966308  0.91754248  0.22883588    -0.81500
O41         O  0.82283094  0.07609624  0.23952195    -0.81400
O42         O  0.84210433  0.97426461  0.33823619    -0.81400
O43         O  0.87377932  0.01049215  0.12754389    -0.81400
C44         C  0.85030602  0.04478927  0.12504234     1.08300
C45         C  0.83366956  0.93270785  0.33744284     1.08200
C46         C  0.80059324  0.93497298  0.19670469     1.08300
C47         C  0.81501844  0.08247269  0.27836359     1.08200
O48         O  0.91952925  0.09303928  0.27492381    -0.81400
O49         O  0.91315967  0.89290549  0.21003996    -0.81500
O50         O  0.94045202  0.98383370  0.19720942    -0.81400
O51         O  0.93093639  0.00043202  0.29039922    -0.81400
O52         O  0.92584908  0.93095371  0.28767165    -0.81400
O53         O  0.93571407  0.05389545  0.18945364    -0.81400
O54         O  0.89705531  0.07214008  0.33876874    -0.81400
O55         O  0.90282069  0.92097947  0.14587213    -0.81400
Co56       Co  0.88059237  0.06593319  0.21851645     1.51500
Co57       Co  0.87621091  0.93584618  0.24941694     1.51700
Co58       Co  0.88126089  0.96986816  0.18267241     1.51600
Co59       Co  0.87340367  0.02339439  0.29834887     1.51500
O60         O  0.86414152  0.00236626  0.23616230    -1.43300
C61         C  0.91934354  0.09997905  0.31764155     1.08200
C62         C  0.92060044  0.89103587  0.16856369     1.08300
C63         C  0.95522520  0.01847988  0.18291412     1.08300
C64         C  0.94064041  0.96429338  0.30506721     1.08200
C65         C  0.03274124  0.97709627  0.48986002     0.01000
C66         C  0.98966354  0.98851687  0.48617769     0.01000
C67         C  0.96307718  0.95394533  0.48261126     0.01000
C68         C  0.97317078  0.91758551  0.50699908     0.01000
C69         C  0.01685744  0.90885991  0.51668690     0.01000
C70         C  0.04280136  0.94500633  0.52009361     0.01000
O71         O  0.06796071  0.82835164  0.64360541    -0.81400
O72         O  0.92131553  0.67515587  0.67000931    -0.81400
O73         O  0.94097263  0.82357499  0.67195023    -0.81400
O74         O  0.04476260  0.70011996  0.68791776    -0.81400
O75         O  0.89728009  0.76603142  0.67278641    -0.81500
O76         O  0.04319832  0.76732323  0.69575195    -0.81400
O77         O  0.98459708  0.64872358  0.65657482    -0.81400
O78         O  0.00788448  0.86449448  0.64650893    -0.81400
C79         C  0.04832544  0.86330058  0.65629895     1.08300
C80         C  0.94713201  0.64253824  0.67182072     1.08200
C81         C  0.90885994  0.80353028  0.68539630     1.08300
C82         C  0.06026614  0.73296747  0.70594588     1.08200
O83         O  0.10497566  0.73854255  0.61720165    -0.81400
O84         O  0.88398305  0.77047871  0.58159127    -0.81500
O85         O  0.99633103  0.81033282  0.55730870    -0.81400
O86         O  0.99277446  0.69853673  0.56972020    -0.81400
O87         O  0.92619891  0.68369947  0.57811652    -0.81400
O88         O  0.04448279  0.76097239  0.57180104    -0.81400
O89         O  0.07424433  0.67598893  0.60447766    -0.81400
O90         O  0.91005461  0.83616188  0.59062456    -0.81400
Co91       Co  0.04362190  0.76439574  0.63316409     1.51500
Co92       Co  0.91505613  0.72699883  0.62599638     1.51700
Co93       Co  0.96877406  0.81609788  0.61683107     1.51600
Co94       Co  0.01799461  0.70182721  0.62827502     1.51500
O95         O  0.97798494  0.75381153  0.63678147    -1.43300
C96         C  0.10746901  0.69965044  0.59976247     1.08200
C97         C  0.87881931  0.81206155  0.57724541     1.08300
C98         C  0.02555066  0.78398403  0.54521607     1.08300
C99         C  0.96240651  0.67311202  0.56398979     1.08200
O100        O  0.14749851  0.85610248  0.07435545    -0.81400
O101        O  0.32447193  0.85922581  0.93007984    -0.81400
O102        O  0.19003457  0.80446530  0.93240361    -0.81400
O103        O  0.26211094  0.80447780  0.03508751    -0.81400
O104        O  0.25486636  0.81665618  0.95114380    -0.81500
O105        O  0.23242460  0.83777551  0.09106572    -0.81400
O106        O  0.33806255  0.83262354  0.99622828    -0.81400
O107        O  0.15071595  0.80661869  0.02346483    -0.81400
C108        C  0.13381565  0.81994422  0.05952007     1.08300
C109        C  0.34898897  0.83567353  0.95557012     1.08200
C110        C  0.22935341  0.80056785  0.92486131     1.08300
C111        C  0.24999163  0.80453228  0.07348974     1.08200
O112        O  0.25429596  0.93039760  0.08781279    -0.81400
O113        O  0.22856387  0.89739376  0.89523999    -0.81500
O114        O  0.13335020  0.89279058  0.00552946    -0.81400
O115        O  0.30589120  0.91829329  0.01504740    -0.81400
O116        O  0.28115768  0.93824853  0.95329392    -0.81400
O117        O  0.17292520  0.94095867  0.03908016    -0.81400
O118        O  0.30171326  0.87886310  0.08579351    -0.81400
O119        O  0.16318905  0.89091285  0.91958148    -0.81400
Co120      Co  0.20373133  0.89113293  0.06673333     1.51500
Co121      Co  0.26479100  0.87782941  0.95233495     1.51700
Co122      Co  0.16520897  0.84979715  0.97301148     1.51600
Co123      Co  0.28249548  0.86045006  0.02094891     1.51500
O124        O  0.22134250  0.87837868  0.00235460    -1.43300
C125        C  0.28864220  0.91417773  0.10475130     1.08200
C126        C  0.18775189  0.90553405  0.89010811     1.08300
C127        C  0.14459339  0.93149215  0.01026058     1.08300
C128        C  0.30890669  0.94150072  0.98255264     1.08200
O129        O  0.99091229  0.85288649  0.15831718    -0.81400
O130        O  0.99820272  0.63465832  0.17081608    -0.81400
O131        O  0.90949998  0.74100252  0.13168522    -0.81400
O132        O  0.07618797  0.75998687  0.17264268    -0.81400
O133        O  0.94996254  0.71899366  0.18419343    -0.81500
O134        O  0.01051195  0.77138372  0.18799959    -0.81400
O135        O  0.06184265  0.66615920  0.16999426    -0.81400
O136        O  0.93749288  0.82495607  0.12116102    -0.81400
C137        C  0.95125445  0.85513627  0.14811382     1.08300
C138        C  0.03865582  0.63299990  0.17989295     1.08200
C139        C  0.92080657  0.74433883  0.17025837     1.08300
C140        C  0.04818006  0.77802424  0.19661809     1.08200
O141        O  0.07235222  0.81234774  0.11417162    -0.81400
O142        O  0.91803288  0.66522546  0.10880949    -0.81500
O143        O  0.96743855  0.79020488  0.03197913    -0.81400
O144        O  0.06590765  0.66779543  0.08095304    -0.81400
O145        O  0.99759491  0.65790555  0.08377149    -0.81400
O146        O  0.00713529  0.82586822  0.07710798    -0.81400
O147        O  0.08977466  0.75538174  0.07664832    -0.81400
O148        O  0.92014488  0.70868596  0.05158773    -0.81400
Co149      Co  0.00694786  0.79685755  0.13162347     1.51500
Co150      Co  0.97651298  0.68635515  0.13515560     1.51700
Co151      Co  0.94088332  0.76412411  0.08432977     1.51600
Co152      Co  0.06637894  0.71574064  0.12326129     1.51500
O153        O  0.00155275  0.73837664  0.10727981    -1.43300
C154        C  0.09674335  0.79490972  0.08456173     1.08200
C155        C  0.90138664  0.67714028  0.07183560     1.08300
C156        C  0.99329787  0.82056215  0.03967172     1.08300
C157        C  0.03442654  0.64261767  0.08105691     1.08200
C158        C  0.24252425  0.80592096  0.26314487     0.01000
C159        C  0.21704348  0.80242799  0.22545181     0.01000
C160        C  0.17750634  0.78444735  0.23407271     0.01000
C161        C  0.17891533  0.74577233  0.25675094     0.01000
C162        C  0.20890180  0.74315439  0.29029121     0.01000
C163        C  0.24608643  0.76749217  0.28721092     0.01000
O164        O  0.14198941  0.64804290  0.54706933    -0.81400
O165        O  0.35276307  0.64565097  0.47173546    -0.81400
O166        O  0.26701770  0.71110858  0.56217015    -0.81400
O167        O  0.21913439  0.70000683  0.43714551    -0.81400
O168        O  0.32704484  0.68748383  0.53758780    -0.81500
O169        O  0.16069171  0.67209309  0.46575461    -0.81400
O170        O  0.30970883  0.69053305  0.44044686    -0.81400
O171        O  0.18493623  0.69441931  0.57677454    -0.81400
C172        C  0.14682544  0.68016614  0.57339492     1.08300
C173        C  0.34872089  0.67851518  0.44566685     1.08200
C174        C  0.30398904  0.71846514  0.54890337     1.08300
C175        C  0.17915187  0.70020561  0.44336697     1.08200
O176        O  0.15781010  0.58766616  0.45244889    -0.81400
O177        O  0.34975533  0.60390778  0.56765783    -0.81500
O178        O  0.20530064  0.60195766  0.58777835    -0.81400
O179        O  0.29570478  0.59698637  0.43226870    -0.81400
O180        O  0.29209096  0.57325129  0.49922031    -0.81400
O181        O  0.20461280  0.57124693  0.52427084    -0.81400
O182        O  0.20827076  0.60739116  0.40867076    -0.81400
O183        O  0.29357575  0.62185702  0.60433651    -0.81400
Co184      Co  0.18519483  0.62564762  0.50060088     1.51500
Co185      Co  0.30815475  0.62915159  0.52175000     1.51700
Co186      Co  0.23957855  0.65607504  0.57380031     1.51600
Co187      Co  0.25689503  0.64889333  0.43631453     1.51500
O188        O  0.24729293  0.64645173  0.50430178    -1.43300
C189        C  0.17303664  0.58585862  0.41412568     1.08200
C190        C  0.33129662  0.60319489  0.60493049     1.08300
C191        C  0.19589074  0.56979400  0.56365465     1.08300
C192        C  0.30474434  0.56850294  0.46081134     1.08200
C193        C  0.25301000  0.76926669  0.73240995     0.01000
C194        C  0.23667109  0.75309811  0.69237310     0.01000
C195        C  0.26303148  0.72363026  0.67212169     0.01000
C196        C  0.27680491  0.69148569  0.70136045     0.01000
C197        C  0.29858348  0.70904773  0.73674160     0.01000
C198        C  0.28286446  0.74607023  0.75718512     0.01000
O199        O  0.40139280  0.81910430  0.89842636    -0.81400
O200        O  0.57723537  0.67191938  0.89117770    -0.81400
O201        O  0.45336829  0.69438016  0.97471136    -0.81400
O202        O  0.52601948  0.78857300  0.97675121    -0.81400
O203        O  0.50611766  0.70173543  0.93513716    -0.81500
O204        O  0.48546512  0.78607253  0.92042542    -0.81400
O205        O  0.58323918  0.71639374  0.94719696    -0.81400
O206        O  0.40855354  0.77951399  0.95764086    -0.81400
C207        C  0.38906521  0.81075654  0.93722152     1.08300
C208        C  0.59831312  0.68264906  0.92648834     1.08200
C209        C  0.48559380  0.67704966  0.95887209     1.08300
C210        C  0.49938131  0.80812153  0.95364751     1.08200
O211        O  0.51745305  0.82728577  0.83447249    -0.81400
O212        O  0.47351780  0.65591075  0.84015815    -0.81500
O213        O  0.39628143  0.74743739  0.87585213    -0.81400
O214        O  0.57938398  0.75989901  0.86854287    -0.81400
O215        O  0.53311939  0.73000870  0.82500948    -0.81400
O216        O  0.44377379  0.76679229  0.82915892    -0.81400
O217        O  0.55635316  0.83740664  0.89269223    -0.81400
O218        O  0.42345387  0.66214351  0.88903273    -0.81400
Co219      Co  0.46176186  0.81327583  0.86780652     1.51500
Co220      Co  0.51485391  0.69681065  0.87318096     1.51700
Co221      Co  0.42765898  0.72411527  0.92351398     1.51600
Co222      Co  0.55185843  0.77296307  0.92089944     1.51500
O223        O  0.48747858  0.75306828  0.89723813    -1.43300
C224        C  0.54634952  0.85045124  0.85342184     1.08200
C225        C  0.43702631  0.64363356  0.85340419     1.08300
C226        C  0.41296797  0.74311976  0.84008479     1.08300
C227        C  0.57016046  0.74188633  0.83367578     1.08200
C228        C  0.71796415  0.28321684  0.75567473     0.01000
C229        C  0.75120720  0.28504026  0.78774560     0.01000
C230        C  0.76168089  0.24544668  0.80714492     0.01000
C231        C  0.72483271  0.22118343  0.81670403     0.01000
C232        C  0.69965022  0.21309916  0.77876930     0.01000
C233        C  0.68511458  0.25220866  0.76088775     0.01000
O234        O  0.94022492  0.42642197  0.80713610    -0.81400
O235        O  0.93861882  0.55925584  0.67425646    -0.81400
O236        O  0.90805104  0.41507465  0.70839903    -0.81400
O237        O  0.91891870  0.57340411  0.81057289    -0.81400
O238        O  0.95129378  0.47123826  0.70469588    -0.81500
O239        O  0.95283776  0.51306444  0.80187346    -0.81400
O240        O  0.90875784  0.59529372  0.72547796    -0.81400
O241        O  0.88521611  0.38948224  0.78833027    -0.81400
C242        C  0.92287313  0.38951505  0.80540895     1.08300
C243        C  0.93231938  0.59648691  0.69183509     1.08200
C244        C  0.94566787  0.43077906  0.70678764     1.08300
C245        C  0.95350216  0.55189454  0.81258122     1.08200
O246        O  0.87517348  0.52844439  0.85952467    -0.81400
O247        O  0.87366626  0.46620463  0.64654870    -0.81500
O248        O  0.81099049  0.44927860  0.78016202    -0.81400
O249        O  0.82259835  0.55259382  0.72963398    -0.81400
O250        O  0.85870778  0.54963149  0.67042799    -0.81400
O251        O  0.85297301  0.44579881  0.83809922    -0.81400
O252        O  0.82517029  0.54923189  0.81632187    -0.81400
O253        O  0.82122449  0.44745681  0.68815844    -0.81400
Co254      Co  0.90417585  0.48016806  0.82038378     1.51500
Co255      Co  0.90107017  0.50668631  0.69377225     1.51700
Co256      Co  0.85797112  0.43340214  0.74294134     1.51600
Co257      Co  0.86918622  0.56100728  0.76968501     1.51500
O258        O  0.88266664  0.49543977  0.75758340    -1.43300
C259        C  0.83848108  0.54679409  0.85504149     1.08200
C260        C  0.83685502  0.44788417  0.64983943     1.08300
C261        C  0.81680330  0.44000451  0.81973815     1.08300
C262        C  0.83143754  0.56825809  0.69384061     1.08200
O263        O  0.98504131  0.14709736  0.34520017    -0.81400
O264        O  0.04739798  0.34340154  0.34714829    -0.81400
O265        O  0.95182048  0.25396571  0.32853542    -0.81400
O266        O  0.08810553  0.25665447  0.32989820    -0.81400
O267        O  0.96115182  0.32337898  0.33793580    -0.81500
O268        O  0.05120346  0.19788325  0.31511727    -0.81400
O269        O  0.10634640  0.32930202  0.38146826    -0.81400
O270        O  0.92081476  0.17318812  0.35962930    -0.81400
C271        C  0.94293340  0.14209372  0.34196406     1.08300
C272        C  0.08664669  0.35387399  0.35418860     1.08200
C273        C  0.93851606  0.29222062  0.32507080     1.08300
C274        C  0.07290831  0.22948267  0.30306489     1.08200
O275        O  0.09651637  0.16841074  0.39938317    -0.81400
O276        O  0.94437191  0.32591711  0.42745271    -0.81500
O277        O  0.96114840  0.18986817  0.43909939    -0.81400
O278        O  0.07074807  0.26693921  0.45337525    -0.81400
O279        O  0.03473649  0.32795754  0.44499560    -0.81400
O280        O  0.02758704  0.17032142  0.43244901    -0.81400
O281        O  0.12923994  0.22871871  0.41677961    -0.81400
O282        O  0.90913554  0.26529091  0.41695737    -0.81400
Co283      Co  0.03366135  0.19190494  0.37491315     1.51500
Co284      Co  0.99954236  0.32300361  0.38957123     1.51700
Co285      Co  0.95677895  0.22432241  0.38468142     1.51600
Co286      Co  0.08100567  0.26764077  0.39236108     1.51500
O287        O  0.01480032  0.25587603  0.39109631    -1.43300
C288        C  0.12947472  0.18742146  0.41877420     1.08200
C289        C  0.90859504  0.30563254  0.43035561     1.08300
C290        C  0.99078355  0.16237203  0.44444812     1.08300
C291        C  0.05222654  0.29880761  0.46911385     1.08200
C292        C  0.22931326  0.31926131  0.23242613     0.01000
C293        C  0.20733507  0.29442436  0.26340133     0.01000
C294        C  0.23595192  0.27064567  0.28814738     0.01000
C295        C  0.26563129  0.24705303  0.26441157     0.01000
C296        C  0.28601759  0.26751125  0.23007084     0.01000
C297        C  0.25869841  0.29529892  0.20622169     0.01000
O298        O  0.13779274  0.35983807  0.96551503    -0.81400
O299        O  0.35033232  0.35028275  0.03917162    -0.81400
O300        O  0.25019750  0.30751814  0.96396462    -0.81400
O301        O  0.21790138  0.34299725  0.08513812    -0.81400
O302        O  0.31684135  0.32679423  0.95644487    -0.81500
O303        O  0.19652694  0.31888419  0.02214677    -0.81400
O304        O  0.30804219  0.33548066  0.09134591    -0.81400
O305        O  0.18052524  0.33839492  0.91266632    -0.81400
C306        C  0.14200460  0.33906226  0.92843864     1.08300
C307        C  0.34581359  0.33262421  0.07631312     1.08200
C308        C  0.28770787  0.29830718  0.95366921     1.08300
C309        C  0.20917374  0.31165538  0.06024582     1.08200
O310        O  0.16434794  0.40279499  0.06502268    -0.81400
O311        O  0.31053745  0.42122171  0.93147866    -0.81500
O312        O  0.21392080  0.42339432  0.92852857    -0.81400
O313        O  0.31557251  0.42621426  0.08241496    -0.81400
O314        O  0.32042965  0.43948755  0.01388393    -0.81400
O315        O  0.18399502  0.44023484  0.98844250    -0.81400
O316        O  0.22150885  0.43696725  0.08724684    -0.81400
O317        O  0.27415599  0.37417288  0.89581331    -0.81400
Co318      Co  0.19119433  0.37980348  0.00424574     1.51500
Co319      Co  0.31908734  0.38407281  0.98679192     1.51700
Co320      Co  0.23075008  0.36524868  0.94906041     1.51600
Co321      Co  0.26445814  0.38581068  0.07928178     1.51500
O322        O  0.25758228  0.38629915  0.00918392    -1.43300
C323        C  0.18137122  0.43018032  0.09277858     1.08200
C324        C  0.30061215  0.40647253  0.89418435     1.08300
C325        C  0.19317275  0.45006617  0.95035338     1.08300
C326        C  0.33708758  0.43914413  0.05035356     1.08200
C327        C  0.28586622  0.24529716  0.73106277     0.01000
C328        C  0.24445425  0.23483308  0.74358084     0.01000
C329        C  0.22245570  0.26214748  0.77233839     0.01000
C330        C  0.24933140  0.29066276  0.79742999     0.01000
C331        C  0.28332218  0.30838482  0.77303664     0.01000
C332        C  0.30850032  0.27527463  0.75520143     0.01000
O333        O  0.57116235  0.33297352  0.58660856    -0.81400
O334        O  0.43925257  0.17359659  0.61848995    -0.81400
O335        O  0.56705978  0.23472598  0.57281526    -0.81400
O336        O  0.42277109  0.31573493  0.57375304    -0.81400
O337        O  0.51245738  0.19249426  0.57372012    -0.81500
O338        O  0.48660009  0.34766488  0.56828257    -0.81400
O339        O  0.41450421  0.22705421  0.58017778    -0.81400
O340        O  0.61031740  0.28713383  0.62286778    -0.81400
C341        C  0.60879804  0.31879048  0.59525058     1.08300
C342        C  0.41115601  0.18715464  0.58989781     1.08200
C343        C  0.54356957  0.20868911  0.55383217     1.08300
C344        C  0.44850172  0.34097663  0.55510363     1.08200
O345        O  0.46795212  0.36980173  0.65757434    -0.81400
O346        O  0.52927438  0.14742474  0.65282467    -0.81500
O347        O  0.55196656  0.26179333  0.69317933    -0.81400
O348        O  0.42237399  0.23818609  0.67504751    -0.81400
O349        O  0.48559304  0.21687548  0.69628994    -0.81400
O350        O  0.54659516  0.33233370  0.68343406    -0.81400
O351        O  0.41380692  0.32675072  0.66675569    -0.81400
O352        O  0.58836217  0.18633967  0.65303007    -0.81400
Co353      Co  0.51618945  0.33729616  0.62446525     1.51500
Co354      Co  0.49944656  0.20479211  0.63468863     1.51700
Co355      Co  0.55704777  0.24592771  0.63334275     1.51600
Co356      Co  0.42600032  0.27620417  0.62392355     1.51500
O357        O  0.49446901  0.27194474  0.62155941    -1.43300
C358        C  0.43070144  0.36368809  0.67326542     1.08200
C359        C  0.57027513  0.14861032  0.66051513     1.08300
C360        C  0.55208082  0.29975841  0.70827508     1.08300
C361        C  0.45070251  0.23518967  0.70465095     1.08200
O362        O  0.30948407  0.97734560  0.15812490    -0.81400
O363        O  0.34821025  0.99900116  0.37204358    -0.81400
O364        O  0.31456015  0.93251389  0.25166609    -0.81400
O365        O  0.35250236  0.09366538  0.25743570    -0.81400
O366        O  0.30733114  0.98584419  0.29774061    -0.81500
O367        O  0.30118757  0.05121774  0.23600781    -0.81400
O368        O  0.37016812  0.05744260  0.33877939    -0.81400
O369        O  0.33928841  0.91233508  0.16888359    -0.81400
C370        C  0.31352066  0.93592463  0.14585199     1.08300
C371        C  0.35074610  0.04002716  0.37309134     1.08200
C372        C  0.29412545  0.95191631  0.28089158     1.08300
C373        C  0.31451256  0.08242638  0.25928690     1.08200
O374        O  0.37208851  0.08446020  0.17717996    -0.81400
O375        O  0.37638558  0.92093519  0.31970115    -0.81500
O376        O  0.41374348  0.95513065  0.17957501    -0.81400
O377        O  0.45479374  0.03327083  0.28467562    -0.81400
O378        O  0.42777244  0.99139377  0.33294045    -0.81400
O379        O  0.38425183  0.01550792  0.15637399    -0.81400
O380        O  0.43079494  0.07966322  0.21634731    -0.81400
O381        O  0.39656180  0.89809240  0.25403610    -0.81400
Co382      Co  0.34571352  0.02343120  0.20095030     1.51500
Co383      Co  0.36714714  0.98799221  0.31252431     1.51700
Co384      Co  0.36560924  0.94621589  0.21765194     1.51600
Co385      Co  0.40150115  0.06035061  0.27300764     1.51500
O386        O  0.38175158  0.99880647  0.25153860    -1.43300
C387        C  0.41095423  0.09907411  0.18521835     1.08200
C388        C  0.39315060  0.89106657  0.29559063     1.08300
C389        C  0.40729551  0.98333085  0.15048077     1.08300
C390        C  0.45786702  0.01457542  0.31956151     1.08200
C391        C  0.51885078  0.06106040  0.51960754     0.01000
C392        C  0.55022681  0.02889479  0.53039568     0.01000
C393        C  0.56593810  0.00542561  0.49499819     0.01000
C394        C  0.53491847  0.99651993  0.46316712     0.01000
C395        C  0.50896006  0.03144699  0.45166071     0.01000
C396        C  0.48887581  0.04713463  0.48857682     0.01000
O397        O  0.38355448  0.73503707  0.39405009    -0.81400
O398        O  0.60621480  0.77708517  0.37489068    -0.81400
O399        O  0.51791226  0.67514981  0.42106985    -0.81400
O400        O  0.50688241  0.81313826  0.40477919    -0.81400
O401        O  0.54679129  0.74026770  0.42385914    -0.81500
O402        O  0.43814392  0.81312156  0.40655493    -0.81400
O403        O  0.56202427  0.83187507  0.36953114    -0.81400
O404        O  0.42650010  0.68612295  0.42214870    -0.81400
C405        C  0.38835162  0.70162425  0.41965126     1.08300
C406        C  0.59988996  0.81791419  0.38169528     1.08200
C407        C  0.53627052  0.70589272  0.44169011     1.08300
C408        C  0.47369110  0.83066317  0.41593356     1.08200
O409        O  0.38836222  0.81808442  0.33369215    -0.81400
O410        O  0.57554190  0.67857685  0.35389332    -0.81500
O411        O  0.42387256  0.66894892  0.33077437    -0.81400
O412        O  0.52340666  0.80683074  0.28673101    -0.81400
O413        O  0.55696058  0.74633653  0.29685098    -0.81400
O414        O  0.41628587  0.73544840  0.30463322    -0.81400
O415        O  0.45264000  0.84297642  0.32092415    -0.81400
O416        O  0.51626245  0.64779993  0.33033747    -0.81400
Co417      Co  0.42843008  0.77129323  0.35617378     1.51500
Co418      Co  0.55072392  0.74352109  0.36147503     1.51700
Co419      Co  0.47268598  0.67461404  0.37424834     1.51600
Co420      Co  0.50313081  0.80194970  0.34510262     1.51500
O421        O  0.48569953  0.73806286  0.35790230    -1.43300
C422        C  0.41155685  0.84832407  0.31746062     1.08200
C423        C  0.55752473  0.64594445  0.33376833     1.08300
C424        C  0.40386330  0.69675696  0.30755613     1.08300
C425        C  0.54470779  0.77662791  0.27178178     1.08200
O426        O  0.58380946  0.89080656  0.78974598    -0.81400
O427        O  0.61962266  0.10713356  0.71585297    -0.81400
O428        O  0.55834947  0.00796886  0.80806254    -0.81400
O429        O  0.56371652  0.99110932  0.71204329    -0.81400
O430        O  0.57222118  0.05683775  0.75863161    -0.81500
O431        O  0.57297853  0.92330185  0.69966355    -0.81400
O432        O  0.59042569  0.06782665  0.66319149    -0.81400
O433        O  0.57599632  0.92793971  0.85108168    -0.81400
C434        C  0.56886216  0.89228783  0.83009952     1.08300
C435        C  0.59548593  0.10636079  0.68009358     1.08200
C436        C  0.55060563  0.04364871  0.78912497     1.08300
C437        C  0.55274426  0.95780693  0.69247823     1.08200
O438        O  0.66460552  0.92016531  0.68375379    -0.81400
O439        O  0.64944554  0.07121365  0.81346156    -0.81500
O440        O  0.65718847  0.92967747  0.83194122    -0.81400
O441        O  0.67432186  0.04521685  0.67907940    -0.81400
O442        O  0.69250888  0.04582633  0.74495579    -0.81400
O443        O  0.67700094  0.90405281  0.76954141    -0.81400
O444        O  0.63513900  0.97234210  0.64496170    -0.81400
O445        O  0.63757548  0.01451935  0.85617672    -0.81400
Co446      Co  0.62484554  0.91666489  0.73710841     1.51500
Co447      Co  0.63218155  0.04880722  0.75056512     1.51700
Co448      Co  0.60933229  0.96935288  0.81371161     1.51600
Co449      Co  0.61855440  0.01613771  0.69694285     1.51500
O450        O  0.63617855  0.98300115  0.75487661    -1.43300
C451        C  0.66002853  0.93830386  0.64652034     1.08200
C452        C  0.65249236  0.05321220  0.85171078     1.08300
C453        C  0.67540961  0.90072864  0.81001830     1.08300
C454        C  0.70056246  0.05755049  0.70776717     1.08200
C455        C  0.54319698  0.01891126  0.92987774     0.01000
C456        C  0.51233205  0.98612043  0.93235896     0.01000
C457        C  0.47716776  0.99670535  0.95703818     0.01000
C458        C  0.48761451  0.01479825  0.99651986     0.01000
C459        C  0.52034401  0.04430903  0.99872397     0.01000
C460        C  0.55553579  0.03634290  0.97151317     0.01000
O461        O  0.38307399  0.26937654  0.11562833    -0.81400
O462        O  0.59475547  0.19792961  0.10159612    -0.81400
O463        O  0.50173820  0.28841012  0.07748337    -0.81400
O464        O  0.50424310  0.20083015  0.07074223    -0.81400
O465        O  0.57026085  0.28544934  0.09245458    -0.81500
O466        O  0.43743729  0.21666868  0.07510866    -0.81400
O467        O  0.56110700  0.13686876  0.09298727    -0.81400
O468        O  0.42302387  0.32802463  0.10790691    -0.81400
C469        C  0.38572033  0.30896106  0.10136355     1.08300
C470        C  0.59465123  0.15870292  0.08393733     1.08200
C471        C  0.53946302  0.30049546  0.07091219     1.08300
C472        C  0.46709037  0.19792264  0.05632489     1.08200
O473        O  0.41394835  0.17561700  0.15450657    -0.81400
O474        O  0.57298385  0.30875836  0.18443731    -0.81500
O475        O  0.45818672  0.30952590  0.19494925    -0.81400
O476        O  0.55758627  0.15716948  0.17958768    -0.81400
O477        O  0.57190968  0.22095057  0.20050369    -0.81400
O478        O  0.42866590  0.24742244  0.19673350    -0.81400
O479        O  0.47459941  0.13817292  0.15053349    -0.81400
O480        O  0.51953342  0.34745381  0.15995259    -0.81400
Co481      Co  0.43789601  0.23600921  0.13594653     1.51500
Co482      Co  0.57032391  0.25163414  0.14532094     1.51700
Co483      Co  0.47841859  0.29688309  0.13584718     1.51600
Co484      Co  0.52509537  0.17918464  0.12684217     1.51500
O485        O  0.50410858  0.23606243  0.15225943    -1.43300
C486        C  0.43414721  0.13969217  0.16145716     1.08200
C487        C  0.55479859  0.34630198  0.18269300     1.08300
C488        C  0.43828450  0.28177866  0.21566490     1.08300
C489        C  0.58322081  0.18273289  0.19838623     1.08200
O490        O  0.18385081  0.12523747  0.43628007    -0.81400
O491        O  0.36023491  0.12132148  0.57800662    -0.81400
O492        O  0.23592790  0.19710395  0.55694372    -0.81400
O493        O  0.29998399  0.18471077  0.45871311    -0.81400
O494        O  0.27333433  0.14120545  0.54862880    -0.81500
O495        O  0.26939791  0.13847812  0.41456306    -0.81400
O496        O  0.35368234  0.17469637  0.53326722    -0.81400
O497        O  0.18900709  0.18142730  0.47766998    -0.81400
C498        C  0.16912617  0.16327872  0.44544895     1.08300
C499        C  0.37366362  0.15912659  0.56617958     1.08200
C500        C  0.26867687  0.17721967  0.56872976     1.08300
C501        C  0.27548690  0.17670696  0.42669945     1.08200
O502        O  0.29555326  0.05194462  0.43287510    -0.81400
O503        O  0.23875935  0.06082432  0.59348708    -0.81500
O504        O  0.17710039  0.09749442  0.51278320    -0.81400
O505        O  0.35907163  0.08264481  0.50828304    -0.81400
O506        O  0.30364224  0.04854205  0.53258006    -0.81400
O507        O  0.21638772  0.04793405  0.48110086    -0.81400
O508        O  0.34026946  0.10420355  0.42461256    -0.81400
O509        O  0.19773079  0.11734504  0.59565409    -0.81400
Co510      Co  0.24467428  0.09285273  0.45003611     1.51500
Co511      Co  0.29592713  0.09190216  0.57625722     1.51700
Co512      Co  0.20759766  0.14649587  0.53326423     1.51600
Co513      Co  0.32931619  0.13522456  0.48495827     1.51500
O514        O  0.26894327  0.11759795  0.51271727    -1.43300
C515        C  0.32822608  0.06647242  0.41223508     1.08200
C516        C  0.20604831  0.07909200  0.61070596     1.08300
C517        C  0.18093389  0.06231965  0.49329909     1.08300
C518        C  0.34138085  0.04819917  0.52167969     1.08200
C519        C  0.73842858  0.80920053  0.24551498     0.01000
C520        C  0.76820500  0.78217659  0.22591430     0.01000
C521        C  0.75252641  0.74507643  0.20606709     0.01000
C522        C  0.71644031  0.72611210  0.22368686     0.01000
C523        C  0.68906973  0.75259077  0.24829217     0.01000
C524        C  0.70975548  0.78627715  0.27158198     0.01000
O525        O  0.61779986  0.58584187  0.32479692    -0.81400
O526        O  0.59047797  0.41981229  0.17873122    -0.81400
O527        O  0.55684902  0.57133123  0.17973316    -0.81400
O528        O  0.56031970  0.45481260  0.31071537    -0.81400
O529        O  0.57070078  0.50569175  0.17841893    -0.81500
O530        O  0.58419590  0.51639788  0.33252048    -0.81400
O531        O  0.58468854  0.39695953  0.24559543    -0.81400
O532        O  0.56807244  0.59170429  0.27390599    -0.81400
C533        C  0.58311663  0.60611371  0.31034396     1.08300
C534        C  0.57726558  0.39004958  0.20413406     1.08200
C535        C  0.56305464  0.53837847  0.15673669     1.08300
C536        C  0.55960410  0.48545194  0.33729987     1.08200
O537        O  0.66786017  0.48327190  0.35692894    -0.81400
O538        O  0.66886146  0.52275819  0.15582679    -0.81500
O539        O  0.65910553  0.58964908  0.25638599    -0.81400
O540        O  0.67376518  0.44173523  0.25882513    -0.81400
O541        O  0.67839930  0.44544923  0.18891121    -0.81400
O542        O  0.69391336  0.53255926  0.27817387    -0.81400
O543        O  0.64044513  0.41911527  0.33810189    -0.81400
O544        O  0.64072880  0.58537873  0.16436902    -0.81400
Co545      Co  0.63845082  0.52061669  0.30416113     1.51500
Co546      Co  0.62592866  0.47708024  0.18135497     1.51700
Co547      Co  0.60644590  0.57598368  0.22209013     1.51600
Co548      Co  0.61585966  0.44958194  0.28159422     1.51500
O549        O  0.61207148  0.50660364  0.24194103    -1.43300
C550        C  0.66468635  0.44127585  0.36541033     1.08200
C551        C  0.66498608  0.56140861  0.14167543     1.08300
C552        C  0.69373973  0.56877094  0.26005482     1.08300
C553        C  0.68299688  0.42460752  0.22313184     1.08200
C554        C  0.77883583  0.27857861  0.28190675     0.01000
C555        C  0.80166585  0.24900297  0.25814953     0.01000
C556        C  0.78401181  0.23462942  0.21958553     0.01000
C557        C  0.73962148  0.23077200  0.21762182     0.01000
C558        C  0.71526608  0.25974467  0.24072833     0.01000
C559        C  0.73407979  0.27822102  0.27737697     0.01000
C560        C  0.72400412  0.78297937  0.68528252     0.01000
C561        C  0.76725410  0.77464454  0.69139724     0.01000
C562        C  0.77618309  0.73243440  0.70679364     0.01000
C563        C  0.74882507  0.71339619  0.73629011     0.01000
C564        C  0.70631514  0.72766406  0.73454266     0.01000
C565        C  0.69930442  0.77045456  0.72079584     0.01000
O566        O  0.18582372  0.96376992  0.83077440    -0.81400
O567        O  0.18845164  0.01812206  0.66522806    -0.81400
O568        O  0.13720109  0.90155948  0.75096854    -0.81400
O569        O  0.16739770  0.08594564  0.74450188    -0.81400
O570        O  0.18951187  0.94133227  0.72550731    -0.81500
O571        O  0.20411311  0.03974409  0.78508641    -0.81400
O572        O  0.14531208  0.07397395  0.66766196    -0.81400
O573        O  0.12706693  0.92657757  0.83553183    -0.81400
C574        C  0.16624509  0.93292618  0.84982247     1.08300
C575        C  0.17814349  0.05576613  0.64935235     1.08200
C576        C  0.17601643  0.91197970  0.75091874     1.08300
C577        C  0.20206466  0.07263202  0.76163503     1.08200
O578        O  0.12500806  0.08439173  0.82023138    -0.81400
O579        O  0.11214255  0.91295056  0.67522981    -0.81500
O580        O  0.05029292  0.98078822  0.79630710    -0.81400
O581        O  0.06324009  0.04671478  0.69651589    -0.81400
O582        O  0.09891862  0.99788830  0.65853028    -0.81400
O583        O  0.10242934  0.99737462  0.83982896    -0.81400
O584        O  0.08211429  0.09755687  0.76521506    -0.81400
O585        O  0.05694072  0.92377065  0.71604347    -0.81400
Co586      Co  0.15266698  0.01913572  0.81198431     1.51500
Co587      Co  0.14634587  0.97095820  0.69062070     1.51700
Co588      Co  0.09382793  0.93948765  0.77320576     1.51600
Co589      Co  0.11572873  0.05520658  0.72747499     1.51500
O590        O  0.12731642  0.99499840  0.75145672    -1.43300
C591        C  0.09403826  0.10816791  0.80370169     1.08200
C592        C  0.07312384  0.90242097  0.68339318     1.08300
C593        C  0.06561680  0.00529939  0.82563945     1.08300
C594        C  0.06656766  0.02211628  0.66458105     1.08200
O595        O  0.77624472  0.40829874  0.60974462    -0.81400
O596        O  0.72799003  0.42953849  0.41910877    -0.81400
O597        O  0.85284750  0.42014445  0.49010391    -0.81400
O598        O  0.68332326  0.42707103  0.50083837    -0.81400
O599        O  0.80409990  0.45354806  0.45075592    -0.81500
O600        O  0.70884404  0.43944170  0.56430564    -0.81400
O601        O  0.67439050  0.38709398  0.43019000    -0.81400
O602        O  0.83514337  0.42102424  0.57469040    -0.81400
C603        C  0.81416714  0.42502007  0.60938544     1.08300
C604        C  0.68965219  0.41832805  0.40717615     1.08200
C605        C  0.83511367  0.45514614  0.47652166     1.08300
C606        C  0.67991472  0.44454231  0.53665993     1.08200
O607        O  0.67961692  0.35952241  0.59376385    -0.81400
O608        O  0.84968923  0.36652223  0.43221803    -0.81500
O609        O  0.81980500  0.33037800  0.57721759    -0.81400
O610        O  0.71959094  0.31290933  0.46973961    -0.81400
O611        O  0.77389156  0.33477278  0.43511199    -0.81400
O612        O  0.75395579  0.32275461  0.55926668    -0.81400
O613        O  0.65423038  0.34052799  0.52923326    -0.81400
O614        O  0.84860831  0.32268579  0.48623687    -0.81400
Co615      Co  0.73319645  0.38179328  0.56051990     1.51500
Co616      Co  0.78594706  0.39555991  0.43968919     1.51700
Co617      Co  0.83244112  0.37348305  0.52931056     1.51600
Co618      Co  0.70409128  0.36931262  0.49059432     1.51500
O619        O  0.76936575  0.38936921  0.50559785    -1.43300
C620        C  0.64981280  0.33996665  0.57176469     1.08200
C621        C  0.86613180  0.33171836  0.44974081     1.08300
C622        C  0.78347553  0.31535292  0.58564832     1.08300
C623        C  0.73775270  0.31988191  0.43441394     1.08200
C624        C  0.04109321  0.48990880  0.53443534     0.01000
C625        C  0.01142963  0.49611898  0.56818022     0.01000
C626        C  0.98498022  0.46106302  0.57760229     0.01000
C627        C  0.96863502  0.44112440  0.54032599     0.01000
C628        C  0.00170087  0.42588039  0.51521673     0.01000
C629        C  0.03187150  0.45793973  0.50368624     0.01000
O630        O  0.84018104  0.62528616  0.07576177    -0.81400
O631        O  0.67368265  0.64436194  0.92055589    -0.81400
O632        O  0.82775765  0.66023063  0.92491216    -0.81400
O633        O  0.72166373  0.67718486  0.02140951    -0.81400
O634        O  0.76159024  0.67346683  0.93970883    -0.81500
O635        O  0.75423573  0.65310866  0.08135542    -0.81400
O636        O  0.64422975  0.64722074  0.98573499    -0.81400
O637        O  0.84171453  0.66511886  0.01734507    -0.81400
C638        C  0.85910624  0.65484573  0.05386355     1.08300
C639        C  0.64059088  0.65630897  0.94470105     1.08200
C640        C  0.79229878  0.67712567  0.91396682     1.08300
C641        C  0.74297528  0.68368628  0.05581024     1.08200
O642        O  0.72654347  0.56149497  0.09068797    -0.81400
O643        O  0.77847263  0.59002402  0.89015811    -0.81500
O644        O  0.80584674  0.57833483  0.01468917    -0.81400
O645        O  0.67904627  0.56139144  0.98898890    -0.81400
O646        O  0.71621450  0.55930999  0.93029760    -0.81400
O647        O  0.80748059  0.53715641  0.06763374    -0.81400
O648        O  0.67723097  0.60653927  0.07064448    -0.81400
O649        O  0.83061042  0.56793172  0.93151518    -0.81400
Co650      Co  0.77928635  0.59522117  0.07233172     1.51500
Co651      Co  0.73658734  0.61593247  0.93900673     1.51700
Co652      Co  0.82582425  0.61788085  0.97352891     1.51600
Co653      Co  0.70095722  0.61983742  0.00594973     1.51500
O654        O  0.76499163  0.60074366  0.00140425    -1.43300
C655        C  0.69037879  0.57774680  0.09883967     1.08200
C656        C  0.81397878  0.56869553  0.89394195     1.08300
C657        C  0.82379331  0.54700579  0.03263821     1.08300
C658        C  0.68946124  0.54300689  0.95384935     1.08200
C659        C  0.50419645  0.46676777  0.97285683     0.01000
C660        C  0.52795655  0.49658439  0.95086897     0.01000
C661        C  0.57097066  0.49192283  0.96046338     0.01000
C662        C  0.58073776  0.48878148  0.00546269     0.01000
C663        C  0.55092189  0.46737821  0.03282882     0.01000
C664        C  0.50869458  0.46460051  0.01769262     0.01000
O665        O  0.86009066  0.12042197  0.95284324    -0.81400
O666        O  0.62951114  0.11131315  0.02342815    -0.81400
O667        O  0.72818467  0.18182646  0.93073590    -0.81400
O668        O  0.76096742  0.17027723  0.04980382    -0.81400
O669        O  0.67431917  0.16505996  0.97369752    -0.81500
O670        O  0.82501893  0.14562883  0.04110007    -0.81400
O671        O  0.67426930  0.14866871  0.06355390    -0.81400
O672        O  0.81565350  0.16663953  0.92487031    -0.81400
C673        C  0.85461199  0.15365359  0.92854290     1.08300
C674        C  0.63429676  0.13844126  0.05554553     1.08200
C675        C  0.69483592  0.19188371  0.95151302     1.08300
C676        C  0.79912611  0.16952624  0.06078915     1.08200
O677        O  0.84521461  0.06318694  0.04422435    -0.81400
O678        O  0.66110146  0.07741544  0.93088416    -0.81500
O679        O  0.79333101  0.07470446  0.90717144    -0.81400
O680        O  0.70656538  0.05889841  0.06849947    -0.81400
O681        O  0.69575865  0.04418171  0.00108914    -0.81400
O682        O  0.79129037  0.04685265  0.97240562    -0.81400
O683        O  0.79066826  0.08122678  0.08155433    -0.81400
O684        O  0.71120810  0.09723426  0.88634324    -0.81400
Co685      Co  0.81476924  0.09954502  0.99714156     1.51500
Co686      Co  0.68573446  0.10425754  0.98870099     1.51700
Co687      Co  0.76020618  0.12852547  0.92070325     1.51600
Co688      Co  0.73499337  0.11491625  0.05667560     1.51500
O689        O  0.74981710  0.11050682  0.98695303    -1.43300
C690        C  0.82773393  0.06283261  0.08126586     1.08200
C691        C  0.67591361  0.07724464  0.89201567     1.08300
C692        C  0.79699139  0.04215832  0.93207902     1.08300
C693        C  0.69397055  0.03289802  0.03981221     1.08200
O694        O  0.37556392  0.59246122  0.67959304    -0.81400
O695        O  0.32672275  0.40771094  0.81509778    -0.81400
O696        O  0.32659750  0.45285919  0.67466829    -0.81400
O697        O  0.29999905  0.53918192  0.79673040    -0.81400
O698        O  0.29980683  0.45712716  0.74057622    -0.81500
O699        O  0.32293004  0.58324979  0.74684739    -0.81400
O700        O  0.33192172  0.46991351  0.85083639    -0.81400
O701        O  0.34003209  0.53796463  0.65250498    -0.81400
C702        C  0.35044100  0.57741176  0.64801047     1.08300
C703        C  0.32026844  0.42874714  0.85092957     1.08200
C704        C  0.29621667  0.44686123  0.70101867     1.08300
C705        C  0.29253820  0.56515437  0.76628108     1.08200
O706        O  0.40710482  0.61641203  0.78113204    -0.81400
O707        O  0.37471249  0.39834039  0.72447243    -0.81500
O708        O  0.43007957  0.52647375  0.67841423    -0.81400
O709        O  0.41630834  0.50277701  0.81919262    -0.81400
O710        O  0.40759642  0.43585497  0.80083448    -0.81400
O711        O  0.44286173  0.55003260  0.74445869    -0.81400
O712        O  0.38560884  0.57882085  0.83791298    -0.81400
O713        O  0.41915287  0.44034315  0.69189932    -0.81400
Co714      Co  0.38336014  0.56617430  0.74597694     1.51500
Co715      Co  0.35366468  0.44673070  0.76980513     1.51700
Co716      Co  0.37817362  0.49035554  0.67884286     1.51600
Co717      Co  0.35895429  0.52030259  0.80804395     1.51500
O718        O  0.36888901  0.50341944  0.74239424    -1.43300
C719        C  0.40872927  0.61088127  0.82303017     1.08200
C720        C  0.40685812  0.40196544  0.69839288     1.08300
C721        C  0.45605692  0.53791714  0.70861019     1.08300
C722        C  0.42207950  0.46392736  0.82644649     1.08200
O723        O  0.82209037  0.88332258  0.40432077    -0.81400
O724        O  0.66654243  0.91254502  0.56698442    -0.81400
O725        O  0.72180131  0.94797224  0.43045794    -0.81400
O726        O  0.77959975  0.93547193  0.54750791    -0.81400
O727        O  0.67416842  0.94374154  0.48231659    -0.81500
O728        O  0.78854714  0.92534802  0.48012721    -0.81400
O729        O  0.72278616  0.90155045  0.60930121    -0.81400
O730        O  0.76523930  0.91397637  0.37633178    -0.81400
C731        C  0.80596593  0.90894148  0.37481243     1.08300
C732        C  0.68463563  0.91724727  0.60543213     1.08200
C733        C  0.70016770  0.96532190  0.45985735     1.08300
C734        C  0.80416107  0.93746589  0.51565211     1.08200
O735        O  0.83580630  0.83384511  0.51106450    -0.81400
O736        O  0.63361268  0.85457828  0.44847584    -0.81500
O737        O  0.74106208  0.82914395  0.39897756    -0.81400
O738        O  0.71634918  0.82501594  0.55928266    -0.81400
O739        O  0.65559533  0.82807217  0.52253245    -0.81400
O740        O  0.77946540  0.80508543  0.45360672    -0.81400
O741        O  0.80426325  0.84962411  0.57290071    -0.81400
O742        O  0.66603812  0.86654756  0.38820687    -0.81400
Co743      Co  0.79494497  0.86392261  0.46612437     1.51500
Co744      Co  0.66659538  0.88447280  0.50164997     1.51700
Co745      Co  0.72240715  0.88573327  0.41950393     1.51600
Co746      Co  0.74573071  0.88071959  0.55122317     1.51500
O747        O  0.73244917  0.87047471  0.48507056    -1.43300
C748        C  0.83700663  0.83270041  0.55280424     1.08200
C749        C  0.63477412  0.84832697  0.40701716     1.08300
C750        C  0.75944388  0.79850128  0.41916976     1.08300
C751        C  0.68143291  0.80806036  0.54567026     1.08200
O752        O  0.06168343  0.58956828  0.24334239    -0.81400
O753        O  0.09234050  0.39977761  0.28946357    -0.81400
O754        O  0.06635964  0.47346331  0.16920310    -0.81400
O755        O  0.08102635  0.48293556  0.34363611    -0.81400
O756        O  0.06436476  0.41706196  0.21151612    -0.81500
O757        O  0.04278222  0.53402192  0.31577340    -0.81400
O758        O  0.13473730  0.42206100  0.34107871    -0.81400
O759        O  0.08154476  0.56356822  0.17868374    -0.81400
C760        C  0.06101803  0.59242494  0.20168423     1.08300
C761        C  0.10706687  0.39340368  0.32748928     1.08200
C762        C  0.05377252  0.43547505  0.17727909     1.08300
C763        C  0.04612410  0.50207415  0.34028315     1.08200
O764        O  0.12513625  0.57407867  0.34485786    -0.81400
O765        O  0.14968757  0.43146232  0.17056376    -0.81500
O766        O  0.16812219  0.54263582  0.20505939    -0.81400
O767        O  0.19234322  0.48884952  0.29558599    -0.81400
O768        O  0.17970908  0.42779343  0.26104396    -0.81400
O769        O  0.15565529  0.55583309  0.27297487    -0.81400
O770        O  0.15790322  0.51628843  0.37291370    -0.81400
O771        O  0.14284679  0.49184900  0.13292075    -0.81400
Co772      Co  0.09517537  0.54869518  0.28453432     1.51500
Co773      Co  0.12084259  0.42574157  0.23602218     1.51700
Co774      Co  0.11742984  0.50618279  0.19176710     1.51600
Co775      Co  0.13511302  0.48783736  0.31745339     1.51500
O776        O  0.10606713  0.48858427  0.25597387    -1.43300
C777        C  0.15062361  0.55744220  0.37557862     1.08200
C778        C  0.15640567  0.45233973  0.13366423     1.08300
C779        C  0.16803305  0.56852835  0.23667073     1.08300
C780        C  0.20523611  0.45579283  0.27716026     1.08200
C781        C  0.49487247  0.57665434  0.51310312     0.01000
C782        C  0.45590457  0.56645022  0.53349765     0.01000
C783        C  0.46140767  0.53382101  0.56599097     0.01000
C784        C  0.47812205  0.49671302  0.54657605     0.01000
C785        C  0.51872597  0.50538341  0.53179019     0.01000
C786        C  0.52300650  0.54121924  0.50518310     0.01000
C787        C  0.99555084  0.48011566  0.94966664     0.01000
C788        C  0.01432336  0.43886376  0.94911174     0.01000
C789        C  0.05215231  0.43882723  0.97453962     0.01000
C790        C  0.04390479  0.44697750  0.01904712     0.01000
C791        C  0.01903388  0.48347083  0.02637511     0.01000
C792        C  0.99193578  0.49862373  0.99205858     0.01000
C793        C  0.07350092  0.39049648  0.11658582    -0.10400
C794        C  0.04051535  0.40819782  0.14104074     0.05800
C795        C  0.00033983  0.41114286  0.12177813    -0.04200
C796        C  0.99789133  0.41257142  0.07640817    -0.08600
C797        C  0.03613274  0.41211716  0.05214244     0.04900
C798        C  0.07043828  0.39061947  0.07157626    -0.03700
Br799      Br  0.09543225  0.34281499  0.04332999    -0.03300
H800        H  0.10185881  0.37769501  0.13211092     0.08800
H801        H  0.96778088  0.42026188  0.06123427     0.06800
Br802      Br  0.95040393  0.40854920  0.15667614    -0.03800
C803        C  0.50292834  0.58335692  0.67488539    -0.10400
C804        C  0.50067930  0.54477077  0.69747616     0.05800
C805        C  0.51575946  0.50926156  0.67504649    -0.04200
C806        C  0.50212380  0.50580418  0.63201821    -0.08600
C807        C  0.48384185  0.54221758  0.60953041     0.04900
C808        C  0.48756520  0.58275798  0.63179062    -0.03700
Br809      Br  0.46390716  0.63601046  0.61507040    -0.03300
H810        H  0.50173577  0.61319252  0.69329131     0.08800
H811        H  0.50189746  0.47353088  0.61865108     0.06800
Br812      Br  0.53055688  0.45804430  0.70578287    -0.03800
C813        C  0.43511239  0.47055396  0.94551571    -0.10400
C814        C  0.47136580  0.44610564  0.94876582     0.05800
C815        C  0.48218552  0.41576995  0.91698006    -0.04200
C816        C  0.46262508  0.41897189  0.87661426    -0.08600
C817        C  0.43362737  0.45255328  0.86981914     0.04900
C818        C  0.41718022  0.47629685  0.90575076    -0.03700
Br819      Br  0.37689183  0.52270135  0.90783143    -0.03300
H820        H  0.42572525  0.49110523  0.97230141     0.08800
H821        H  0.47306304  0.39871035  0.85007144     0.06800
Br822      Br  0.52564286  0.37345796  0.92693138    -0.03800
C823        C  0.91893767  0.47920596  0.01071074    -0.10400
C824        C  0.94939157  0.51181243  0.00424526     0.05800
C825        C  0.93774480  0.55521767  0.00786734    -0.04200
C826        C  0.89533434  0.56481004  0.01197802    -0.08600
C827        C  0.86535470  0.53276256  0.02015553     0.04900
C828        C  0.87701483  0.48943740  0.01979367    -0.03700
Br829      Br  0.83685133  0.44383272  0.02869827    -0.03300
H830        H  0.92772636  0.44576770  0.00923971     0.08800
H831        H  0.88615193  0.59767950  0.00814662     0.06800
Br832      Br  0.97544247  0.60301918  0.99871640    -0.03800
C833        C  0.66597150  0.46678968  0.95399663    -0.10400
C834        C  0.66608324  0.50773406  0.93516702     0.05800
C835        C  0.63961401  0.51473187  0.89799287    -0.04200
C836        C  0.60516790  0.48673412  0.89219299    -0.08600
C837        C  0.59429889  0.46321627  0.92883679     0.04900
C838        C  0.63033552  0.44116290  0.94511534    -0.03700
Br839      Br  0.64038964  0.38281010  0.92831631    -0.03300
H840        H  0.69406640  0.45415144  0.97031769     0.08800
H841        H  0.58439530  0.48825914  0.86414587     0.06800
Br842      Br  0.64706895  0.56119293  0.85786266    -0.03800
C843        C  0.02332755  0.44556639  0.38516352    -0.10400
C844        C  0.01389968  0.48767307  0.37050170     0.05800
C845        C  0.00235165  0.51862513  0.40125691    -0.04200
C846        C  0.01237980  0.51101770  0.44483421    -0.08600
C847        C  0.03078001  0.47157087  0.45803301     0.04900
C848        C  0.04032157  0.44107361  0.42704193    -0.03700
Br849      Br  0.08934234  0.40644230  0.43913855    -0.03300
H850        H  0.03149973  0.42155419  0.36132803     0.08800
H851        H  0.00799034  0.53673288  0.46747083     0.06800
Br852      Br  0.98073451  0.57402203  0.38423172    -0.03800
C853        C  0.63095635  0.49501641  0.57274562    -0.10400
C854        C  0.63756036  0.45770832  0.54841716     0.05800
C855        C  0.60186939  0.43274441  0.53442044    -0.04200
C856        C  0.56228110  0.44434124  0.54775719    -0.08600
C857        C  0.55584326  0.48758461  0.55494682     0.04900
C858        C  0.58992452  0.51246543  0.57284451    -0.03700
Br859      Br  0.58469727  0.56998256  0.59456557    -0.03300
H860        H  0.65776484  0.51357944  0.58510155     0.08800
H861        H  0.53615391  0.42342248  0.53949301     0.06800
Br862      Br  0.59792563  0.39555972  0.48445097    -0.03800
C863        C  0.90177482  0.48463319  0.54477944    -0.10400
C864        C  0.93126940  0.46182419  0.51878255     0.05800
C865        C  0.92630270  0.46485287  0.47267724    -0.04200
C866        C  0.89430733  0.49159762  0.45561943    -0.08600
C867        C  0.85853845  0.49549094  0.48143998     0.04900
C868        C  0.86663816  0.50469684  0.52511800    -0.03700
Br869      Br  0.82536205  0.53434981  0.55915916    -0.03300
H870        H  0.90648998  0.48766329  0.57938472     0.08800
H871        H  0.88916508  0.49133899  0.42068988     0.06800
Br872      Br  0.94134961  0.41951738  0.43407920    -0.03800
C873        C  0.66033763  0.77491882  0.63663086    -0.10400
C874        C  0.70504835  0.77044586  0.64232450     0.05800
C875        C  0.72835150  0.75279288  0.60646550    -0.04200
C876        C  0.70578959  0.74134581  0.56872658    -0.08600
C877        C  0.66931387  0.76540888  0.56100230     0.04900
C878        C  0.64159780  0.76931403  0.59574228    -0.03700
Br879      Br  0.58335161  0.78624107  0.58657456    -0.03300
H880        H  0.64060231  0.78618268  0.66242851     0.08800
H881        H  0.72354003  0.73032433  0.54082539     0.06800
Br882      Br  0.78869522  0.75249326  0.59839647    -0.03800
C883        C  0.79891117  0.71993015  0.79989703    -0.10400
C884        C  0.76810481  0.69508619  0.77728335     0.05800
C885        C  0.74992598  0.66036557  0.79947757    -0.04200
C886        C  0.75311422  0.65975258  0.84485874    -0.08600
C887        C  0.78325763  0.68555631  0.86755163     0.04900
C888        C  0.80762670  0.71454971  0.84401231    -0.03700
Br889      Br  0.85065895  0.74979363  0.87104019    -0.03300
H890        H  0.81684391  0.74344625  0.78336834     0.08800
H891        H  0.73177507  0.63876995  0.86192036     0.06800
Br892      Br  0.71754142  0.61635503  0.76999154    -0.03800
C893        C  0.82865537  0.22281758  0.11175260    -0.10400
C894        C  0.80954203  0.18261870  0.10450990     0.05800
C895        C  0.79531287  0.15773987  0.14032678    -0.04200
C896        C  0.80524474  0.17146722  0.18134572    -0.08600
C897        C  0.81077178  0.21519657  0.18698537     0.04900
C898        C  0.82681462  0.24065910  0.15326632    -0.03700
Br899      Br  0.83912378  0.30074404  0.16128264    -0.03300
H900        H  0.83895786  0.24234055  0.08472406     0.08800
H901        H  0.79315108  0.15289259  0.20820773     0.06800
Br902      Br  0.74629833  0.11974940  0.14210413    -0.03800
C903        C  0.71728983  0.33984427  0.31825454    -0.10400
C904        C  0.70766837  0.29736350  0.30991751     0.05800
C905        C  0.68842541  0.27155435  0.34175971    -0.04200
C906        C  0.68907563  0.28648308  0.38402739    -0.08600
C907        C  0.71602692  0.32100484  0.39341520     0.04900
C908        C  0.73017077  0.34884558  0.35944124    -0.03700
Br909      Br  0.77747173  0.38944457  0.35897986    -0.03300
H910        H  0.73028656  0.35931404  0.29242342     0.08800
H911        H  0.67791860  0.26564236  0.40969240     0.06800
Br912      Br  0.67157255  0.21271548  0.33274126    -0.03800
C913        C  0.60632347  0.50510949  0.10002484    -0.10400
C914        C  0.57824364  0.53870824  0.11118995     0.05800
C915        C  0.57027526  0.57056667  0.07926237    -0.04200
C916        C  0.58283597  0.56152481  0.03610227    -0.08600
C917        C  0.60579046  0.52306303  0.02710977     0.04900
C918        C  0.62863239  0.50643740  0.06202062    -0.03700
Br919      Br  0.67807468  0.47047373  0.05735641    -0.03300
H920        H  0.61284404  0.47799931  0.12031116     0.08800
H921        H  0.57085261  0.58126134  0.00968153     0.06800
Br922      Br  0.54125493  0.62343910  0.09173038    -0.03800
C923        C  0.57646881  0.48725158  0.41271374    -0.10400
C924        C  0.54371617  0.48252060  0.38141241     0.05800
C925        C  0.50261119  0.49476580  0.39249323    -0.04200
C926        C  0.49617585  0.51187368  0.43392664    -0.08600
C927        C  0.53073811  0.52650488  0.46025289     0.04900
C928        C  0.57174487  0.51403304  0.44816100    -0.03700
Br929      Br  0.62340475  0.53546861  0.47408463    -0.03300
H930        H  0.60826254  0.47795694  0.40541956     0.08800
H931        H  0.46424529  0.51265509  0.44564874     0.06800
Br932      Br  0.45580200  0.49038191  0.35218923    -0.03800
C933        C  0.65923812  0.35309430  0.24314092    -0.10400
C934        C  0.68674343  0.37858679  0.21902849     0.05800
C935        C  0.71230709  0.35960039  0.18743123    -0.04200
C936        C  0.71434000  0.31506993  0.18592114    -0.08600
C937        C  0.68969034  0.29000483  0.21450687     0.04900
C938        C  0.65524790  0.30962312  0.23486154    -0.03700
Br939      Br  0.61386967  0.27837929  0.26747947    -0.03300
H940        H  0.64357147  0.36596135  0.27121770     0.08800
H941        H  0.74138762  0.30137749  0.16951977     0.06800
Br942      Br  0.75169913  0.39199319  0.15320562    -0.03800
C943        C  0.77186044  0.78458746  0.32539670    -0.10400
C944        C  0.72904605  0.77299570  0.31475125     0.05800
C945        C  0.70803148  0.74583658  0.34491623    -0.04200
C946        C  0.72681475  0.73827205  0.38567571    -0.08600
C947        C  0.76525083  0.75840025  0.39630903     0.04900
C948        C  0.79201065  0.76825427  0.36233937    -0.03700
Br949      Br  0.85059363  0.78322192  0.37373242    -0.03300
H950        H  0.79015546  0.80678820  0.30644658     0.08800
H951        H  0.70901754  0.72199452  0.41065594     0.06800
Br952      Br  0.65819735  0.71320104  0.33223900    -0.03800
C953        C  0.71907714  0.75816065  0.13310682    -0.10400
C954        C  0.75463345  0.74446819  0.15856057     0.05800
C955        C  0.79042938  0.72825676  0.13780245    -0.04200
C956        C  0.79124316  0.72974907  0.09277389    -0.08600
C957        C  0.75214587  0.72756833  0.07057647     0.04900
C958        C  0.71774626  0.74970988  0.08855755    -0.03700
Br959      Br  0.66499615  0.75660060  0.05708225    -0.03300
H960        H  0.69090033  0.77103647  0.14846515     0.08800
H961        H  0.81919818  0.71827892  0.07708823     0.06800
Br962      Br  0.82895295  0.68969104  0.16694253    -0.03800
C963        C  0.73295759  0.60710847  0.20804079    -0.10400
C964        C  0.73255964  0.59252670  0.25102977     0.05800
C965        C  0.74232277  0.62259191  0.28362830    -0.04200
C966        C  0.73670601  0.66629634  0.27479037    -0.08600
C967        C  0.72299386  0.68006943  0.23352579     0.04900
C968        C  0.72138156  0.64993117  0.19984254    -0.03700
Br969      Br  0.69062715  0.66448395  0.14819304    -0.03300
H970        H  0.73101709  0.58378756  0.18220691     0.08800
H971        H  0.74219655  0.68883147  0.30051704     0.06800
Br972      Br  0.75006119  0.60499050  0.34281606    -0.03800
C973        C  0.52184601  0.37334221  0.07896478    -0.10400
C974        C  0.54633145  0.34375495  0.05640968     0.05800
C975        C  0.58546453  0.35716481  0.03956823    -0.04200
C976        C  0.59424440  0.40124920  0.03920754    -0.08600
C977        C  0.56625825  0.43053478  0.05953337     0.04900
C978        C  0.53810689  0.41308329  0.08934692    -0.03700
Br979      Br  0.51114761  0.44385634  0.13558199    -0.03300
H980        H  0.49183191  0.36423643  0.09291591     0.08800
H981        H  0.62084728  0.41231242  0.02091619     0.06800
Br982      Br  0.62663023  0.31685010  0.01806168    -0.03800
C983        C  0.64966104  0.20534542  0.16578969    -0.10400
C984        C  0.62952589  0.17718685  0.19472482     0.05800
C985        C  0.65514412  0.15427023  0.22445903    -0.04200
C986        C  0.69876782  0.16477592  0.22717349    -0.08600
C987        C  0.71617883  0.19517798  0.19800435     0.04900
C988        C  0.69274013  0.20623225  0.16130299    -0.03700
Br989      Br  0.71512164  0.23846965  0.11364843    -0.03300
H990        H  0.63329957  0.23180433  0.15055691     0.08800
H991        H  0.71720478  0.15445498  0.25526114     0.06800
Br992      Br  0.63075747  0.11784574  0.26762836    -0.03800
C993        C  0.59683628  0.03076042  0.04278847    -0.10400
C994        C  0.59338717  0.01855428  0.99809596     0.05800
C995        C  0.62379328  0.98679634  0.98434684    -0.04200
C996        C  0.65573814  0.97223218  0.01347103    -0.08600
C997        C  0.66488477  0.99752467  0.05001260     0.04900
C998        C  0.62929999  0.01499004  0.07000366    -0.03700
Br999      Br  0.63219630  0.03368512  0.12941055    -0.03300
H1000       H  0.57508221  0.05334021  0.05700445     0.08800
H1001       H  0.68037523  0.95084592  0.00160453     0.06800
Br1002     Br  0.62712623  0.96078375  0.92870983    -0.03800
C1003       C  0.45425081  0.12451212  0.05445461    -0.10400
C1004       C  0.45801381  0.16127670  0.02901906     0.05800
C1005       C  0.47834718  0.15768014  0.98916021    -0.04200
C1006       C  0.49713457  0.11843477  0.97850455    -0.08600
C1007       C  0.50565800  0.08764601  0.01107162     0.04900
C1008       C  0.48584220  0.09339889  0.05146319    -0.03700
Br1009     Br  0.50200236  0.06256018  0.10366331    -0.03300
H1010       H  0.43468884  0.12543560  0.08264294     0.08800
H1011       H  0.50396467  0.11233546  0.94523861     0.06800
Br1012     Br  0.48355054  0.20591945  0.95098330    -0.03800
C1013       C  0.64693412  0.83128056  0.81129721    -0.10400
C1014       C  0.68010421  0.85682549  0.82781345     0.05800
C1015       C  0.71973647  0.83778542  0.82289464    -0.04200
C1016       C  0.72565812  0.80946503  0.78770884    -0.08600
C1017       C  0.69247379  0.80190541  0.75682876     0.04900
C1018       C  0.65109835  0.81279742  0.77015388    -0.03700
Br1019     Br  0.60022106  0.80297795  0.73640416    -0.03300
H1020       H  0.61733112  0.82981086  0.82734047     0.08800
H1021       H  0.75375470  0.79011866  0.78741284     0.06800
Br1022     Br  0.75897207  0.83997019  0.87105936    -0.03800
C1023       C  0.54567273  0.10123358  0.83801881    -0.10400
C1024       C  0.52201462  0.07524147  0.80898315     0.05800
C1025       C  0.48628679  0.05713547  0.82677350    -0.04200
C1026       C  0.49126056  0.04090766  0.86823067    -0.08600
C1027       C  0.52878801  0.04975972  0.89400679     0.04900
C1028       C  0.55175721  0.08661720  0.88097843    -0.03700
Br1029     Br  0.58289076  0.12230747  0.92091646    -0.03300
H1030       H  0.56457809  0.12735381  0.82573231     0.08800
H1031       H  0.46682171  0.01915083  0.87774561     0.06800
Br1032     Br  0.43809669  0.04107635  0.79172116    -0.03800
C1033       C  0.55677545  0.62717636  0.50741792    -0.10400
C1034       C  0.51240695  0.62167944  0.51301924     0.05800
C1035       C  0.48746628  0.66006837  0.51677801    -0.04200
C1036       C  0.50655428  0.69997078  0.50975558    -0.08600
C1037       C  0.54478074  0.70027725  0.48764012     0.04900
C1038       C  0.57343502  0.66704528  0.49621009    -0.03700
Br1039     Br  0.63088074  0.67051832  0.47615192    -0.03300
H1040       H  0.57830262  0.60038369  0.50816038     0.08800
H1041       H  0.48641142  0.72842916  0.50811921     0.06800
Br1042     Br  0.42723852  0.66360530  0.52302209    -0.03800
C1043       C  0.57290093  0.73961780  0.21113011    -0.10400
C1044       C  0.55969873  0.77919794  0.22698257     0.05800
C1045       C  0.58763523  0.81356580  0.22104309    -0.04200
C1046       C  0.63105513  0.80471528  0.22521267    -0.08600
C1047       C  0.64549563  0.76158573  0.22963579     0.04900
C1048       C  0.61541681  0.72871464  0.21915025    -0.03700
Br1049     Br  0.62255758  0.66965197  0.23043211    -0.03300
H1050       H  0.54948627  0.71397879  0.20883919     0.08800
H1051       H  0.65178053  0.83177021  0.22954687     0.06800
Br1052     Br  0.56844442  0.87217086  0.22498438    -0.03800
C1053       C  0.64161568  0.02580842  0.51487684    -0.10400
C1054       C  0.61105167  0.01431572  0.48231213     0.05800
C1055       C  0.62602916  0.01144763  0.43871871    -0.04200
C1056       C  0.66767874  0.02484180  0.43035723    -0.08600
C1057       C  0.69641386  0.01273518  0.46274837     0.04900
C1058       C  0.68505079  0.02710851  0.50436620    -0.03700
Br1059     Br  0.72705480  0.03182319  0.54969087    -0.03300
H1060       H  0.63277653  0.02953520  0.54854418     0.08800
H1061       H  0.67864927  0.02205801  0.39718777     0.06800
Br1062     Br  0.61160338  0.96463816  0.40052565    -0.03800
C1063       C  0.43643976  0.03636401  0.54819594    -0.10400
C1064       C  0.44807545  0.02846109  0.50459273     0.05800
C1065       C  0.41945352  0.00277609  0.47906097    -0.04200
C1066       C  0.38011942  0.99098381  0.49525544    -0.08600
C1067       C  0.36686065  0.01088746  0.53260649     0.04900
C1068       C  0.39795105  0.02104154  0.56348133    -0.03700
Br1069     Br  0.38346853  0.02768611  0.62305028    -0.03300
H1070       H  0.45555374  0.05558042  0.56994921     0.08800
H1071       H  0.35650731  0.97610579  0.47393019     0.06800
Br1072     Br  0.42697455  0.98308006  0.42256225    -0.03800
C1073       C  0.52504572  0.02669830  0.60582741    -0.10400
C1074       C  0.54599978  0.00520291  0.57212149     0.05800
C1075       C  0.55742461  0.96080520  0.57847937    -0.04200
C1076       C  0.54726370  0.94057764  0.61715294    -0.08600
C1077       C  0.53026260  0.96404724  0.65140488     0.04900
C1078       C  0.51356399  0.00535138  0.64327413    -0.03700
Br1079     Br  0.48345499  0.03757745  0.68638740    -0.03300
H1080       H  0.51763222  0.06072079  0.60339195     0.08800
H1081       H  0.55809481  0.90772553  0.62238160     0.06800
Br1082     Br  0.58125793  0.92127476  0.53684551    -0.03800
C1083       C  0.47386034  0.88759439  0.47021882    -0.10400
C1084       C  0.47861245  0.87572472  0.42713702     0.05800
C1085       C  0.49981512  0.90440812  0.39854226    -0.04200
C1086       C  0.51679974  0.94147054  0.41435129    -0.08600
C1087       C  0.51584824  0.95293298  0.45734771     0.04900
C1088       C  0.49080366  0.92644065  0.48579767    -0.03700
Br1089     Br  0.47083656  0.93779850  0.54302792    -0.03300
H1090       H  0.45756168  0.86593411  0.49203745     0.08800
H1091       H  0.52944242  0.96341864  0.39127906     0.06800
Br1092     Br  0.51242106  0.90152905  0.33754924    -0.03800
C1093       C  0.42482289  0.01610305  0.03964017    -0.10400
C1094       C  0.46602637  0.00085085  0.03484369     0.05800
C1095       C  0.48407438  0.97107586  0.06490265    -0.04200
C1096       C  0.46184048  0.96074010  0.10152836    -0.08600
C1097       C  0.42257426  0.97957752  0.10766392     0.04900
C1098       C  0.40168133  0.00320587  0.07420997    -0.03700
Br1099     Br  0.34284619  0.02155742  0.07374919    -0.03300
H1100       H  0.41076074  0.03833619  0.01646016     0.08800
H1101       H  0.47704542  0.94209863  0.12721336     0.06800
Br1102     Br  0.54106351  0.95092539  0.06636586    -0.03800
C1103       C  0.55160393  0.04960788  0.38648027    -0.10400
C1104       C  0.52631775  0.06501663  0.42067822     0.05800
C1105       C  0.49372126  0.09106245  0.40376671    -0.04200
C1106       C  0.46769291  0.06998516  0.37377239    -0.08600
C1107       C  0.48546625  0.03514777  0.35041047     0.04900
C1108       C  0.53014006  0.03148320  0.35058575    -0.03700
Br1109     Br  0.56086817  0.00697654  0.30313643    -0.03300
H1110       H  0.58527791  0.05619693  0.38527946     0.08800
H1111       H  0.43829916  0.08501887  0.36322859     0.06800
Br1112     Br  0.50612604  0.14937135  0.38800977    -0.03800
C1113       C  0.46974291  0.43235048  0.49635143    -0.10400
C1114       C  0.45359199  0.45782877  0.53072943     0.05800
C1115       C  0.41791196  0.44115281  0.55257166    -0.04200
C1116       C  0.40304226  0.39982930  0.54308282    -0.08600
C1117       C  0.43090682  0.37135075  0.52303438     0.04900
C1118       C  0.45881593  0.38878301  0.49280356    -0.03700
Br1119     Br  0.49074803  0.35169971  0.45563518    -0.03300
H1120       H  0.49615024  0.44306474  0.47727712     0.08800
H1121       H  0.37836907  0.38672323  0.56340798     0.06800
Br1122     Br  0.39566344  0.46483675  0.60369676    -0.03800
C1123       C  0.51957515  0.17996623  0.48850585    -0.10400
C1124       C  0.55564903  0.19182464  0.51191916     0.05800
C1125       C  0.58788055  0.16092643  0.51706319    -0.04200
C1126       C  0.57541168  0.11809772  0.52072004    -0.08600
C1127       C  0.53253525  0.10638677  0.51289023     0.04900
C1128       C  0.50424247  0.13857043  0.49556394    -0.03700
Br1129     Br  0.44353749  0.13326620  0.48767930    -0.03300
H1130       H  0.49706179  0.20494000  0.47902404     0.08800
H1131       H  0.59857506  0.09531100  0.53269641     0.06800
Br1132     Br  0.64364391  0.17667456  0.53800535    -0.03800
C1133       C  0.31955681  0.19437757  0.68108514    -0.10400
C1134       C  0.29959374  0.23406735  0.68720525     0.05800
C1135       C  0.28189515  0.25562407  0.65082787    -0.04200
C1136       C  0.28965393  0.23944928  0.60997582    -0.08600
C1137       C  0.29429946  0.19470475  0.60583372     0.04900
C1138       C  0.31109374  0.17167489  0.64267874    -0.03700
Br1139     Br  0.31281598  0.11061301  0.65196837    -0.03300
H1140       H  0.33151587  0.17699542  0.70922375     0.08800
H1141       H  0.27789133  0.25818667  0.58257170     0.06800
Br1142     Br  0.23080770  0.29050114  0.65300517    -0.03800
C1143       C  0.23887948  0.11892860  0.71615031    -0.10400
C1144       C  0.23834463  0.10018682  0.75713470     0.05800
C1145       C  0.24826156  0.12525460  0.79360264    -0.04200
C1146       C  0.24866478  0.16966532  0.78901042    -0.08600
C1147       C  0.24028250  0.18867073  0.74846807     0.04900
C1148       C  0.23310865  0.16279585  0.71221109    -0.03700
Br1149     Br  0.20293631  0.18447016  0.66241369    -0.03300
H1150       H  0.23202601  0.09927470  0.68847189     0.08800
H1151       H  0.25491797  0.18916121  0.81719066     0.06800
Br1152     Br  0.25254160  0.10121731  0.85088596    -0.03800
C1153       C  0.29254263  0.34795313  0.70210823    -0.10400
C1154       C  0.27424062  0.34615679  0.74392658     0.05800
C1155       C  0.24543821  0.37956531  0.75517257    -0.04200
C1156       C  0.23383520  0.41067030  0.72416262    -0.08600
C1157       C  0.26181892  0.41679558  0.68962391     0.04900
C1158       C  0.27994354  0.37966248  0.67257968    -0.03700
Br1159     Br  0.30098307  0.37862696  0.61447818    -0.03300
H1160       H  0.31527392  0.32426598  0.69119289     0.08800
H1161       H  0.21480455  0.43785667  0.73476033     0.06800
Br1162     Br  0.22859336  0.39073621  0.81365467    -0.03800
C1163       C  0.38370455  0.30095768  0.76099100    -0.10400
C1164       C  0.35460737  0.26759956  0.76499885     0.05800
C1165       C  0.37155632  0.22648318  0.77643573    -0.04200
C1166       C  0.41417431  0.21700050  0.76848858    -0.08600
C1167       C  0.43942860  0.24789221  0.74911632     0.04900
C1168       C  0.42685184  0.29120598  0.75569387    -0.03700
Br1169     Br  0.46716405  0.33577870  0.76728314    -0.03300
H1170       H  0.37294146  0.33376926  0.76317620     0.08800
H1171       H  0.42531005  0.18395924  0.77091221     0.06800
Br1172     Br  0.34275683  0.18424868  0.80909750    -0.03800
C1173       C  0.10603036  0.44472830  0.91548963    -0.10400
C1174       C  0.08872416  0.46213441  0.95367157     0.05800
C1175       C  0.10615933  0.50282705  0.96733050    -0.04200
C1176       C  0.14840727  0.51236388  0.95629355    -0.08600
C1177       C  0.16962743  0.48462981  0.92807130     0.04900
C1178       C  0.14210866  0.46446203  0.89826240    -0.03700
Br1179     Br  0.15324638  0.46440198  0.83775366    -0.03300
H1180       H  0.09209893  0.41705416  0.89951610     0.08800
H1181       H  0.16345144  0.54217898  0.96654056     0.06800
Br1182     Br  0.07298926  0.55449749  0.96970102    -0.03800
C1183       C  0.45235389  0.41382488  0.03140072    -0.10400
C1184       C  0.47093237  0.45249291  0.04357594     0.05800
C1185       C  0.44664657  0.48209283  0.06859306    -0.04200
C1186       C  0.40352786  0.47367186  0.07557386    -0.08600
C1187       C  0.38355311  0.44076154  0.05201683     0.04900
C1188       C  0.40912429  0.41257131  0.02641394    -0.03700
Br1189     Br  0.39496238  0.38282850  0.97253803    -0.03300
H1190       H  0.47110921  0.39074307  0.01319685     0.08800
H1191       H  0.38479835  0.49572922  0.09494398     0.06800
Br1192     Br  0.46914264  0.53315676  0.09528850    -0.03800
C1193       C  0.25611623  0.24012053  0.91250654    -0.10400
C1194       C  0.29424199  0.25960510  0.92661478     0.05800
C1195       C  0.32392749  0.26688159  0.89445026    -0.04200
C1196       C  0.30790982  0.28233565  0.85526619    -0.08600
C1197       C  0.26471270  0.27482871  0.84185765     0.04900
C1198       C  0.23965840  0.25016836  0.87103902    -0.03700
Br1199     Br  0.18334408  0.22982314  0.85922044    -0.03300
H1200       H  0.23490997  0.22656808  0.93635075     0.08800
H1201       H  0.32992356  0.30099372  0.83656165     0.06800
Br1202     Br  0.38330274  0.27461088  0.90824344    -0.03800
C1203       C  0.24841656  0.37079730  0.29481299    -0.10400
C1204       C  0.24587863  0.36141837  0.24967644     0.05800
C1205       C  0.25596335  0.39510600  0.22121314    -0.04200
C1206       C  0.26435421  0.43649277  0.23708776    -0.08600
C1207       C  0.25045312  0.44527459  0.27883511     0.04900
C1208       C  0.25670055  0.41265510  0.30928278    -0.03700
Br1209     Br  0.25206376  0.42522949  0.37003657    -0.03300
H1210       H  0.23929014  0.34808574  0.31904094     0.08800
H1211       H  0.26639080  0.46281709  0.21411401     0.06800
Br1212     Br  0.24609529  0.38965422  0.16177769    -0.03800
C1213       C  0.20373276  0.23750312  0.35038555    -0.10400
C1214       C  0.23319559  0.26698105  0.33563616     0.05800
C1215       C  0.26917423  0.27639777  0.36269865    -0.04200
C1216       C  0.27705699  0.25057280  0.39885389    -0.08600
C1217       C  0.25606031  0.21092107  0.40114302     0.04900
C1218       C  0.22010699  0.20338418  0.37359899    -0.03700
Br1219     Br  0.20268193  0.14816873  0.34967467    -0.03300
H1220       H  0.17397342  0.23272082  0.33355758     0.08800
H1221       H  0.30520223  0.25662602  0.41878701     0.06800
Br1222     Br  0.31564389  0.31297929  0.34661864    -0.03800
C1223       C  0.35817358  0.24560740  0.26047329    -0.10400
C1224       C  0.33247213  0.27765084  0.23990302     0.05800
C1225       C  0.35153089  0.31911231  0.23526466    -0.04200
C1226       C  0.39209154  0.32694044  0.25329419    -0.08600
C1227       C  0.41853630  0.29121774  0.25763453     0.04900
C1228       C  0.39972597  0.25460476  0.27500319    -0.03700
Br1229     Br  0.43613567  0.20818863  0.29342289    -0.03300
H1230       H  0.34863868  0.21247277  0.26056986     0.08800
H1231       H  0.40718366  0.35755976  0.24633910     0.06800
Br1232     Br  0.34040596  0.35615381  0.18776473    -0.03800
C1233       C  0.25382608  0.12619167  0.25077801    -0.10400
C1234       C  0.28683554  0.11402077  0.27860019     0.05800
C1235       C  0.30413297  0.14514814  0.30837298    -0.04200
C1236       C  0.29047227  0.18688861  0.30596073    -0.08600
C1237       C  0.26781878  0.20050529  0.26996251     0.04900
C1238       C  0.24936780  0.16947497  0.24125925    -0.03700
Br1239     Br  0.21945635  0.18031576  0.18780337    -0.03300
H1240       H  0.23981044  0.10287399  0.22847440     0.08800
H1241       H  0.30562376  0.21064592  0.32669231     0.06800
Br1242     Br  0.35757260  0.14445957  0.33927833    -0.03800
C1243       C  0.19779380  0.27922493  0.15398482    -0.10400
C1244       C  0.24183801  0.27780031  0.16342959     0.05800
C1245       C  0.26688113  0.25647090  0.13168621    -0.04200
C1246       C  0.25062954  0.25327147  0.08877960    -0.08600
C1247       C  0.20924281  0.26835353  0.07914563     0.04900
C1248       C  0.18156471  0.26663925  0.11394869    -0.03700
Br1249     Br  0.12148169  0.25972637  0.10708165    -0.03300
H1250       H  0.17536712  0.28912172  0.17673985     0.08800
H1251       H  0.27100794  0.24234175  0.06285776     0.06800
Br1252     Br  0.31447801  0.22035685  0.14625582    -0.03800
C1253       C  0.00836431  0.30521685  0.52898046    -0.10400
C1254       C  0.05065770  0.30285905  0.51616516     0.05800
C1255       C  0.07790038  0.33458498  0.53267297    -0.04200
C1256       C  0.06091980  0.37572519  0.53787308    -0.08600
C1257       C  0.01739588  0.38261406  0.52837863     0.04900
C1258       C  0.99016230  0.34617416  0.53028711    -0.03700
Br1259     Br  0.92964445  0.34831987  0.52881408    -0.03300
H1260       H  0.98770776  0.27759129  0.52403997     0.08800
H1261       H  0.08181321  0.40192806  0.54564100     0.06800
Br1262     Br  0.13838401  0.32661336  0.53275724    -0.03800
C1263       C  0.86629134  0.27210858  0.34182530    -0.10400
C1264       C  0.89287460  0.29932886  0.31867884     0.05800
C1265       C  0.87462489  0.33417636  0.29594501    -0.04200
C1266       C  0.83009832  0.33522655  0.29089290    -0.08600
C1267       C  0.80465645  0.30448213  0.31235018     0.04900
C1268       C  0.82386668  0.28169138  0.34668569    -0.03700
Br1269     Br  0.79443401  0.24847593  0.38932125    -0.03300
H1270       H  0.87792838  0.24241292  0.35563356     0.08800
H1271       H  0.81595271  0.35574290  0.26611715     0.06800
Br1272     Br  0.90838980  0.37559789  0.26605196    -0.03800
C1273       C  0.16100953  0.22737027  0.25525964    -0.10400
C1274       C  0.16528073  0.27262191  0.25318134     0.05800
C1275       C  0.12827482  0.29542169  0.24119814    -0.04200
C1276       C  0.08837048  0.27542935  0.24300844    -0.08600
C1277       C  0.08622065  0.23295468  0.25820192     0.04900
C1278       C  0.12169822  0.20720842  0.25146738    -0.03700
Br1279     Br  0.11872298  0.14581156  0.25832768    -0.03300
H1280       H  0.18668416  0.20743000  0.26517214     0.08800
H1281       H  0.05964803  0.29473341  0.24002321     0.06800
Br1282     Br  0.13160771  0.34988718  0.21612310    -0.03800
C1283       C  0.02018878  0.42257284  0.68870786    -0.10400
C1284       C  0.98138941  0.40154250  0.69603980     0.05800
C1285       C  0.96836049  0.37527097  0.66157395    -0.04200
C1286       C  0.96701070  0.39662028  0.62193335    -0.08600
C1287       C  0.99485562  0.43162315  0.61474904     0.04900
C1288       C  0.02739269  0.43832718  0.64674495    -0.03700
Br1289     Br  0.08377558  0.45762166  0.63450401    -0.03300
H1290       H  0.04090922  0.43175471  0.71554421     0.08800
H1291       H  0.94072337  0.38991213  0.60053756     0.06800
Br1292     Br  0.93186937  0.32674136  0.67058719    -0.03800
C1293       C  0.02303610  0.53413065  0.84059820    -0.10400
C1294       C  0.99055767  0.56559200  0.83931329     0.05800
C1295       C  0.97690078  0.57999335  0.87936257    -0.04200
C1296       C  0.97283588  0.54859417  0.91116486    -0.08600
C1297       C  0.99550183  0.50928782  0.91008696     0.04900
C1298       C  0.01940812  0.50128329  0.87190489    -0.03700
Br1299     Br  0.02791119  0.44427740  0.84935958    -0.03300
H1300       H  0.03772820  0.52563182  0.81006489     0.08800
H1301       H  0.94693966  0.55296457  0.93227074     0.06800
Br1302     Br  0.94480780  0.63258022  0.88426206    -0.03800
C1303       C  0.83710846  0.68885826  0.70443514    -0.10400
C1304       C  0.80002821  0.70001608  0.68243144     0.05800
C1305       C  0.77904340  0.66708687  0.65685815    -0.04200
C1306       C  0.79720491  0.62645893  0.65405642    -0.08600
C1307       C  0.82400018  0.61403820  0.68767665     0.04900
C1308       C  0.84066909  0.64618247  0.71637188    -0.03700
Br1309     Br  0.85426371  0.63919191  0.77737061    -0.03300
H1310       H  0.85275300  0.71266941  0.72492688     0.08800
H1311       H  0.78262432  0.60190940  0.63353185     0.06800
Br1312     Br  0.71981080  0.66382831  0.64214189    -0.03800
C1313       C  0.70848177  0.13156171  0.68240365    -0.10400
C1314       C  0.72718985  0.09666309  0.70445533     0.05800
C1315       C  0.74949119  0.10619780  0.74301826    -0.04200
C1316       C  0.73550808  0.14113632  0.76781624    -0.08600
C1317       C  0.71197422  0.17543519  0.74929293     0.04900
C1318       C  0.70108942  0.17100670  0.70406444    -0.03700
Br1319     Br  0.67375030  0.21412963  0.66892959    -0.03300
H1320       H  0.69373127  0.12622292  0.65078999     0.08800
H1321       H  0.74131650  0.13996343  0.80232043     0.06800
Br1322     Br  0.78224017  0.06148910  0.77081837    -0.03800
C1323       C  0.71899479  0.26484976  0.88713025    -0.10400
C1324       C  0.70078531  0.23572404  0.85639858     0.05800
C1325       C  0.66128624  0.21711452  0.86780201    -0.04200
C1326       C  0.64434001  0.22597008  0.90879108    -0.08600
C1327       C  0.67495958  0.23387653  0.94105391     0.04900
C1328       C  0.70452179  0.26549345  0.92992275    -0.03700
Br1329     Br  0.73866099  0.29280625  0.97395639    -0.03300
H1330       H  0.74738415  0.28212736  0.88092681     0.08800
H1331       H  0.61577756  0.20902665  0.91807750     0.06800
Br1332     Br  0.64449917  0.16374268  0.84420237    -0.03800
C1333       C  0.63425027  0.31315831  0.77980547    -0.10400
C1334       C  0.64117293  0.26877425  0.77230374     0.05800
C1335       C  0.60365155  0.24315714  0.77342912    -0.04200
C1336       C  0.56381297  0.26339290  0.77578513    -0.08600
C1337       C  0.56186074  0.30374564  0.75579520     0.04900
C1338       C  0.59459139  0.33143760  0.76903857    -0.03700
Br1339     Br  0.58418177  0.39109290  0.77926492    -0.03300
H1340       H  0.65890313  0.33347869  0.79216023     0.08800
H1341       H  0.53558202  0.24326112  0.77388662     0.06800
Br1342     Br  0.59975985  0.18577414  0.75497578    -0.03800
C1343       C  0.76105357  0.25803169  0.69191872    -0.10400
C1344       C  0.73317452  0.28856151  0.71120230     0.05800
C1345       C  0.72232417  0.32525223  0.68811983    -0.04200
C1346       C  0.74347440  0.33379047  0.65075081    -0.08600
C1347       C  0.77131890  0.30498587  0.63064960     0.04900
C1348       C  0.77989872  0.26590430  0.65152056    -0.03700
Br1349     Br  0.81616386  0.22321683  0.62635780    -0.03300
H1350       H  0.76775035  0.22787117  0.70786460     0.08800
H1351       H  0.73456352  0.36300047  0.63691413     0.06800
Br1352     Br  0.67540203  0.36316782  0.70035779    -0.03800
C1353       C  0.73885814  0.36437009  0.79937425    -0.10400
C1354       C  0.76296415  0.32730291  0.80950771     0.05800
C1355       C  0.79600763  0.33246498  0.84150598    -0.04200
C1356       C  0.80614144  0.37346590  0.85727574    -0.08600
C1357       C  0.78678346  0.40987394  0.83904034     0.04900
C1358       C  0.74801168  0.40447080  0.81714969    -0.03700
Br1359     Br  0.71351822  0.45315087  0.80081074    -0.03300
H1360       H  0.71431615  0.36365874  0.77555850     0.08800
H1361       H  0.83456997  0.37718180  0.87731847     0.06800
Br1362     Br  0.83177419  0.28790017  0.86436413    -0.03800
C1363       C  0.51062406  0.61200077  0.91991268    -0.10400
C1364       C  0.49102828  0.62980647  0.95644936     0.05800
C1365       C  0.47452615  0.60149002  0.98721753    -0.04200
C1366       C  0.48537411  0.55787946  0.98458538    -0.08600
C1367       C  0.50994369  0.54119701  0.95010767     0.04900
C1368       C  0.51700707  0.56819247  0.91503245    -0.03700
Br1369     Br  0.52341865  0.54702200  0.85712963    -0.03300
H1370       H  0.51822845  0.63137327  0.89301746     0.08800
H1371       H  0.47368767  0.53727794  0.00915008     0.06800
Br1372     Br  0.43637826  0.61997154  0.03194324    -0.03800
C1373       C  0.59957010  0.70378311  0.77172428    -0.10400
C1374       C  0.60559517  0.72408526  0.81188320     0.05800
C1375       C  0.64680271  0.72735264  0.83124014    -0.04200
C1376       C  0.68046279  0.71983009  0.80592175    -0.08600
C1377       C  0.67483180  0.70946807  0.76241829     0.04900
C1378       C  0.63460408  0.69714085  0.74594332    -0.03700
Br1379     Br  0.62399550  0.67966546  0.68719174    -0.03300
H1380       H  0.56786567  0.69833995  0.75832893     0.08800
H1381       H  0.71060887  0.73131187  0.81845720     0.06800
Br1382     Br  0.66399629  0.75195225  0.88711395    -0.03800
C1383       C  0.47872148  0.87707587  0.91947819    -0.10400
C1384       C  0.49987961  0.85563294  0.95356334     0.05800
C1385       C  0.53257060  0.87823501  0.97595259    -0.04200
C1386       C  0.54111467  0.92039729  0.96408295    -0.08600
C1387       C  0.52070254  0.94022000  0.92870810     0.04900
C1388       C  0.49191187  0.91624454  0.90392405    -0.03700
Br1389     Br  0.46533659  0.93645753  0.85114831    -0.03300
H1390       H  0.45315250  0.86414336  0.90227905     0.08800
H1391       H  0.56203111  0.93844460  0.98442975     0.06800
Br1392     Br  0.56877803  0.85441173  0.02124784    -0.03800
C1393       C  0.20721049  0.80782766  0.77976178    -0.10400
C1394       C  0.23925553  0.80908291  0.74942913     0.05800
C1395       C  0.26069051  0.84743065  0.73974527    -0.04200
C1396       C  0.24632517  0.88503721  0.75826602    -0.08600
C1397       C  0.20512761  0.88434973  0.77458490     0.04900
C1398       C  0.18878980  0.84549325  0.79250665    -0.03700
Br1399     Br  0.13422275  0.83605263  0.81904262    -0.03300
H1400       H  0.19336530  0.77747059  0.78932091     0.08800
H1401       H  0.26075120  0.91509855  0.74827444     0.06800
Br1402     Br  0.30399374  0.85166300  0.69670298    -0.03800
C1403       C  0.24385988  0.61952855  0.68828098    -0.10400
C1404       C  0.24639664  0.65601993  0.71440310     0.05800
C1405       C  0.22970564  0.65087576  0.75703360    -0.04200
C1406       C  0.23254969  0.61042267  0.77666770    -0.08600
C1407       C  0.24902717  0.57631820  0.75285899     0.04900
C1408       C  0.24248536  0.57894875  0.70759838    -0.03700
Br1409     Br  0.23741621  0.52888927  0.67197465    -0.03300
H1410       H  0.24269891  0.62294260  0.65400540     0.08800
H1411       H  0.22608344  0.60680710  0.81093444     0.06800
Br1412     Br  0.18644270  0.68723162  0.78092326    -0.03800
C1413       C  0.33542915  0.66975946  0.78917249    -0.10400
C1414       C  0.33828754  0.69167834  0.75016667     0.05800
C1415       C  0.37590605  0.71532591  0.74083024    -0.04200
C1416       C  0.40888350  0.71278906  0.76957748    -0.08600
C1417       C  0.39514867  0.71180261  0.81192741     0.04900
C1418       C  0.35840211  0.68733880  0.82309787    -0.03700
Br1419     Br  0.33554378  0.67804551  0.88068492    -0.03300
H1420       H  0.30792554  0.65048229  0.79646007     0.08800
H1421       H  0.43850614  0.72872467  0.76151183     0.06800
Br1422     Br  0.37827448  0.76959292  0.71068995    -0.03800
C1423       C  0.37618201  0.56070066  0.43459636    -0.10400
C1424       C  0.34221775  0.54051397  0.45532846     0.05800
C1425       C  0.35255786  0.51675176  0.49232871    -0.04200
C1426       C  0.38436989  0.53347151  0.51912561    -0.08600
C1427       C  0.41758367  0.55894821  0.50310348     0.04900
C1428       C  0.41348108  0.57116087  0.45823562    -0.03700
Br1429     Br  0.45507204  0.60032001  0.42442008    -0.03300
H1430       H  0.37095903  0.57502164  0.40287158     0.08800
H1431       H  0.38221295  0.52783939  0.55309753     0.06800
Br1432     Br  0.31246815  0.47739145  0.51641487    -0.03800
C1433       C  0.12170179  0.56366232  0.57773475    -0.10400
C1434       C  0.16030246  0.54127353  0.57420928     0.05800
C1435       C  0.15910500  0.49984878  0.55538546    -0.04200
C1436       C  0.12092376  0.48410118  0.53734359    -0.08600
C1437       C  0.08402993  0.51003035  0.53652808     0.04900
C1438       C  0.08804252  0.55258373  0.54995089    -0.03700
Br1439     Br  0.06645165  0.59596418  0.51099995    -0.03300
H1440       H  0.12111873  0.59482790  0.59319348     0.08800
H1441       H  0.12065151  0.45214725  0.52377247     0.06800
Br1442     Br  0.20861602  0.46401836  0.55466177    -0.03800
C1443       C  0.35374101  0.75022605  0.59298283    -0.10400
C1444       C  0.32385608  0.76059441  0.56091097     0.05800
C1445       C  0.29444168  0.79088863  0.57622469    -0.04200
C1446       C  0.27629530  0.78168509  0.61660421    -0.08600
C1447       C  0.29301113  0.74637832  0.64167348     0.04900
C1448       C  0.33542523  0.73280831  0.63052941    -0.03700
Br1449     Br  0.36485638  0.68303823  0.64973094    -0.03300
H1450       H  0.38467950  0.73858274  0.58283413     0.08800
H1451       H  0.24690840  0.79783369  0.62461583     0.06800
Br1452     Br  0.26908987  0.83246971  0.53812731    -0.03800
C1453       C  0.30594764  0.72641849  0.25070949    -0.10400
C1454       C  0.28571075  0.74134891  0.28850162     0.05800
C1455       C  0.29949664  0.72472926  0.32827707    -0.04200
C1456       C  0.33106368  0.69287120  0.32934771    -0.08600
C1457       C  0.35910652  0.68922275  0.29455424     0.04900
C1458       C  0.34436650  0.70334068  0.25377159    -0.03700
Br1459     Br  0.37675876  0.69298294  0.20257943    -0.03300
H1460       H  0.29340896  0.73352294  0.21913629     0.08800
H1461       H  0.33916715  0.67782608  0.35962335     0.06800
Br1462     Br  0.28260927  0.75269513  0.38071037    -0.03800
C1463       C  0.26311468  0.85549730  0.32390589    -0.10400
C1464       C  0.23493944  0.84547297  0.28979845     0.05800
C1465       C  0.20743627  0.87910581  0.27560985    -0.04200
C1466       C  0.22615658  0.91913652  0.27205844    -0.08600
C1467       C  0.25968863  0.92914290  0.30041951     0.04900
C1468       C  0.27160216  0.89867010  0.33251925    -0.03700
Br1469     Br  0.30520865  0.91247605  0.38292637    -0.03300
H1470       H  0.28191938  0.83110756  0.34003698     0.08800
H1471       H  0.21379118  0.94263582  0.24909875     0.06800
Br1472     Br  0.15672838  0.88806153  0.30854741    -0.03800
C1473       C  0.13609876  0.63788596  0.25052964    -0.10400
C1474       C  0.16794753  0.61489756  0.22943666     0.05800
C1475       C  0.19995429  0.63740131  0.20804820    -0.04200
C1476       C  0.20143299  0.68226755  0.21308609    -0.08600
C1477       C  0.16865185  0.70486898  0.23493545     0.04900
C1478       C  0.13341260  0.68179387  0.24919940    -0.03700
Br1479     Br  0.08580623  0.70497915  0.27898393    -0.03300
H1480       H  0.11654799  0.62245751  0.27417268     0.08800
H1481       H  0.23025993  0.69846210  0.20400637     0.06800
Br1482     Br  0.24646597  0.60826321  0.18082483    -0.03800
C1483       C  0.18264576  0.77291948  0.36046492    -0.10400
C1484       C  0.18975521  0.73761814  0.33257889     0.05800
C1485       C  0.17396416  0.69731540  0.34324732    -0.04200
C1486       C  0.14624586  0.69413266  0.37781347    -0.08600
C1487       C  0.15335671  0.72340454  0.41191644     0.04900
C1488       C  0.16617761  0.76546913  0.40154851    -0.03700
Br1489     Br  0.17271026  0.80909476  0.44516348    -0.03300
H1490       H  0.19342844  0.80481629  0.35226884     0.08800
H1491       H  0.13433918  0.66220396  0.38514124     0.06800
Br1492     Br  0.20438801  0.64735356  0.32402857    -0.03800
C1493       C  0.00118216  0.57342798  0.09693752    -0.10400
C1494       C  0.03810972  0.59550023  0.08414416     0.05800
C1495       C  0.07498227  0.57118975  0.07587605    -0.04200
C1496       C  0.07013010  0.52692781  0.06822005    -0.08600
C1497       C  0.02881479  0.50917720  0.06595698     0.04900
C1498       C  0.99675078  0.53008962  0.08914303    -0.03700
Br1499     Br  0.94494133  0.50457997  0.10822649    -0.03300
H1500       H  0.97354257  0.59027199  0.10908983     0.08800
H1501       H  0.09704978  0.50897104  0.05594156     0.06800
Br1502     Br  0.13034976  0.59629370  0.06939756    -0.03800
C1503       C  0.88512412  0.75718395  0.23822229    -0.10400
C1504       C  0.89393778  0.77211533  0.19681907     0.05800
C1505       C  0.86512743  0.80293973  0.17733320    -0.04200
C1506       C  0.83146405  0.81776680  0.20118955    -0.08600
C1507       C  0.81453130  0.78905166  0.23030924     0.04900
C1508       C  0.84283168  0.75910974  0.25104601    -0.03700
Br1509     Br  0.82657076  0.71006839  0.28415608    -0.03300
H1510       H  0.90605590  0.73345291  0.25322690     0.08800
H1511       H  0.81134042  0.84180967  0.18652365     0.06800
Br1512     Br  0.85229229  0.81213503  0.11599026    -0.03800
C1513       C  0.08381088  0.84650641  0.20131243    -0.10400
C1514       C  0.05744295  0.81707451  0.22241193     0.05800
C1515       C  0.06833431  0.80885446  0.26534575    -0.04200
C1516       C  0.11154711  0.80345035  0.27401607    -0.08600
C1517       C  0.14069637  0.81264886  0.24058768     0.04900
C1518       C  0.12748452  0.84184281  0.20806185    -0.03700
Br1519     Br  0.16557901  0.87257874  0.17125863    -0.03300
H1520       H  0.07212721  0.86496273  0.17391943     0.08800
H1521       H  0.12130951  0.78790131  0.30376711     0.06800
Br1522     Br  0.02594359  0.79286683  0.30644093    -0.03800
C1523       C  0.27596899  0.80862519  0.86100394    -0.10400
C1524       C  0.24698186  0.78299751  0.88405642     0.05800
C1525       C  0.24145386  0.74028933  0.87084723    -0.04200
C1526       C  0.26112158  0.72586932  0.83280374    -0.08600
C1527       C  0.28518563  0.75325616  0.80614733     0.04900
C1528       C  0.29702473  0.79319577  0.82432744    -0.03700
Br1529     Br  0.34240807  0.82723334  0.80191841    -0.03300
H1530       H  0.28166290  0.84145573  0.87059953     0.08800
H1531       H  0.25765698  0.69258870  0.82444495     0.06800
Br1532     Br  0.20841979  0.70053377  0.90397517    -0.03800
C1533       C  0.21083951  0.76224838  0.15471192    -0.10400
C1534       C  0.23620134  0.78735506  0.18407176     0.05800
C1535       C  0.27897515  0.79635165  0.17240940    -0.04200
C1536       C  0.29298688  0.78309917  0.13166091    -0.08600
C1537       C  0.26264460  0.76915203  0.10103758     0.04900
C1538       C  0.22717024  0.74792678  0.11587860    -0.03700
Br1539     Br  0.19218670  0.71493833  0.07673737    -0.03300
H1540       H  0.17814318  0.75362582  0.16103503     0.08800
H1541       H  0.32380728  0.79410038  0.12073329     0.06800
Br1542     Br  0.31972606  0.82646581  0.20846939    -0.03800
C1543       C  0.42663354  0.94118503  0.97314997    -0.10400
C1544       C  0.43424117  0.97872326  0.95020198     0.05800
C1545       C  0.39931042  0.00533476  0.93737274    -0.04200
C1546       C  0.35779153  0.99207719  0.94600968    -0.08600
C1547       C  0.35143356  0.95745004  0.97396133     0.04900
C1548       C  0.38713671  0.93343817  0.98957180    -0.03700
Br1549     Br  0.38946856  0.89675589  0.04021617    -0.03300
H1550       H  0.45322018  0.92371050  0.98734953     0.08800
H1551       H  0.33087080  0.01132911  0.93500838     0.06800
Br1552     Br  0.40525469  0.06431528  0.91959534    -0.03800
C1553       C  0.12428257  0.77710329  0.71231536    -0.10400
C1554       C  0.10651929  0.73509762  0.71284913     0.05800
C1555       C  0.13159354  0.70027157  0.69816820    -0.04200
C1556       C  0.17164700  0.70851283  0.68147579    -0.08600
C1557       C  0.19008834  0.74945462  0.68522767     0.04900
C1558       C  0.16378379  0.78423831  0.69400437    -0.03700
Br1559     Br  0.17696305  0.83937233  0.67009966    -0.03300
H1560       H  0.10505774  0.80517259  0.71971697     0.08800
H1561       H  0.18865663  0.68222912  0.66698340     0.06800
Br1562     Br  0.11402322  0.64067414  0.69999161    -0.03800
C1563       C  0.00388377  0.61072495  0.58711173    -0.10400
C1564       C  0.97278433  0.62712662  0.55901061     0.05800
C1565       C  0.95175681  0.59814261  0.53180016    -0.04200
C1566       C  0.96411540  0.55474650  0.53415516    -0.08600
C1567       C  0.99107921  0.53896294  0.56845647     0.04900
C1568       C  0.00693710  0.56827912  0.59788545    -0.03700
Br1569     Br  0.03864476  0.55380152  0.64957899    -0.03300
H1570       H  0.02461735  0.63040585  0.60381658     0.08800
H1571       H  0.95399827  0.53520243  0.50774082     0.06800
Br1572     Br  0.91336891  0.61710501  0.48676501    -0.03800
C1573       C  0.85926821  0.80646422  0.74328281    -0.10400
C1574       C  0.87801144  0.82784105  0.70888628     0.05800
C1575       C  0.85132789  0.85357213  0.68199632    -0.04200
C1576       C  0.80815555  0.84207301  0.67771237    -0.08600
C1577       C  0.79299066  0.81222581  0.70762126     0.04900
C1578       C  0.81589956  0.81196514  0.74750698    -0.03700
Br1579     Br  0.81105278  0.86486875  0.78003931    -0.03300
H1580       H  0.87720316  0.78500020  0.76443929     0.08800
H1581       H  0.78849809  0.85328413  0.65097568     0.06800
Br1582     Br  0.87346840  0.90174683  0.65284272    -0.03800
C1583       C  0.87109977  0.90523623  0.49258971    -0.10400
C1584       C  0.85075689  0.93207194  0.52201564     0.05800
C1585       C  0.87480106  0.94749977  0.55722181    -0.04200
C1586       C  0.91803569  0.93450025  0.56109093    -0.08600
C1587       C  0.93615958  0.90363280  0.53170793     0.04900
C1588       C  0.90772898  0.88348281  0.50358708    -0.03700
Br1589     Br  0.91866480  0.83163085  0.47171893    -0.03300
H1590       H  0.85551868  0.89424989  0.46511531     0.08800
H1591       H  0.93764165  0.95294893  0.58295849     0.06800
Br1592     Br  0.85190453  0.99160008  0.59431820    -0.03800
C1593       C  0.06675168  0.04590836  0.48596692    -0.10400
C1594       C  0.06628279  0.00327093  0.47259192     0.05800
C1595       C  0.10179224  0.98491733  0.45204817    -0.04200
C1596       C  0.14010978  0.00686154  0.45430984    -0.08600
C1597       C  0.14138615  0.04650697  0.47588671     0.04900
C1598       C  0.10302258  0.06899647  0.48533644    -0.03700
Br1599     Br  0.09512112  0.12679450  0.50855678    -0.03300
H1600       H  0.04075074  0.05979057  0.50373219     0.08800
H1601       H  0.16905346  0.99111115  0.44374167     0.06800
Br1602     Br  0.10162914  0.92866745  0.42639466    -0.03800
C1603       C  0.05894882  0.03460697  0.59243531    -0.10400
C1604       C  0.03622625  0.02347195  0.62944232     0.05800
C1605       C  0.01087153  0.98638970  0.62820921    -0.04200
C1606       C  0.01846469  0.95557360  0.59622940    -0.08600
C1607       C  0.04907443  0.96318583  0.56426977     0.04900
C1608       C  0.07442297  0.99991380  0.56871046    -0.03700
Br1609     Br  0.13479157  0.99416698  0.56280704    -0.03300
H1610       H  0.07913531  0.06299959  0.59416660     0.08800
H1611       H  0.00043172  0.92608860  0.59611503     0.06800
Br1612     Br  0.97331197  0.97316182  0.67477763    -0.03800
C1613       C  0.98914677  0.04271426  0.42957362    -0.10400
C1614       C  0.97494555  0.03048475  0.47006403     0.05800
C1615       C  0.95691357  0.06120159  0.49820861    -0.04200
C1616       C  0.95762678  0.10464795  0.48692193    -0.08600
C1617       C  0.98134490  0.11721177  0.45117259     0.04900
C1618       C  0.99819336  0.08529131  0.42261755    -0.03700
Br1619     Br  0.04478058  0.09141994  0.38284121    -0.03300
H1620       H  0.00320146  0.01872754  0.40844651     0.08800
H1621       H  0.94500694  0.12864102  0.50895561     0.06800
Br1622     Br  0.93947391  0.04687633  0.55534758    -0.03800
C1623       C  0.08385383  0.80931953  0.50934339    -0.10400
C1624       C  0.04658101  0.78532368  0.50257696     0.05800
C1625       C  0.02192204  0.80023262  0.46828090    -0.04200
C1626       C  0.01595309  0.84452129  0.46648573    -0.08600
C1627       C  0.03798833  0.87072159  0.49705561     0.04900
C1628       C  0.07774477  0.85394552  0.51277407    -0.03700
Br1629     Br  0.12005801  0.88485186  0.54549672    -0.03300
H1630       H  0.11087089  0.79475312  0.52612645     0.08800
H1631       H  0.99218829  0.85644286  0.44454946     0.06800
Br1632     Br  0.99592009  0.76125195  0.42772221    -0.03800
C1633       C  0.73278935  0.92841934  0.23044171    -0.10400
C1634       C  0.75483555  0.92817722  0.19117437     0.05800
C1635       C  0.74453795  0.89580913  0.16158652    -0.04200
C1636       C  0.73324760  0.85606991  0.17869122    -0.08600
C1637       C  0.72791385  0.85109131  0.22390001     0.04900
C1638       C  0.72052927  0.88888170  0.24787211    -0.03700
Br1639     Br  0.69796639  0.88834315  0.30431331    -0.03300
H1640       H  0.73473562  0.95630732  0.25166185     0.08800
H1641       H  0.73665503  0.82922005  0.15771816     0.06800
Br1642     Br  0.76293548  0.89891243  0.10255443    -0.03800
C1643       C  0.85317091  0.14948468  0.27030379    -0.10400
C1644       C  0.82196868  0.12578693  0.29263828     0.05800
C1645       C  0.79158016  0.14693015  0.31691731    -0.04200
C1646       C  0.78721089  0.19048028  0.30939460    -0.08600
C1647       C  0.81730955  0.21310133  0.28416772     0.04900
C1648       C  0.85477126  0.19323404  0.27209568    -0.03700
Br1649     Br  0.89934135  0.22186010  0.24108008    -0.03300
H1650       H  0.87145947  0.13553117  0.24453730     0.08800
H1651       H  0.75792116  0.20547962  0.31900464     0.06800
Br1652     Br  0.74847427  0.11697540  0.34860871    -0.03800
C1653       C  0.92130104  0.98165060  0.37709608    -0.10400
C1654       C  0.95024312  0.96160149  0.34987927     0.05800
C1655       C  0.98096479  0.93392836  0.36613859    -0.04200
C1656       C  0.98313565  0.92903556  0.41052526    -0.08600
C1657       C  0.95112720  0.94619189  0.43772619     0.04900
C1658       C  0.91833112  0.97109961  0.41975905    -0.03700
Br1659     Br  0.87631894  0.00260822  0.45196980    -0.03300
H1660       H  0.90012580  0.00558707  0.36539727     0.08800
H1661       H  0.01265385  0.91713049  0.42376145     0.06800
Br1662     Br  0.02374809  0.90911726  0.32980554    -0.03800
C1663       C  0.10411124  0.25339357  0.73392425    -0.10400
C1664       C  0.08780833  0.28995474  0.75431297     0.05800
C1665       C  0.11653313  0.32364868  0.76110078    -0.04200
C1666       C  0.16003456  0.31407893  0.76464475    -0.08600
C1667       C  0.17567731  0.27171974  0.76160322     0.04900
C1668       C  0.14547837  0.24062392  0.74610840    -0.03700
Br1669     Br  0.14678043  0.18135306  0.76041009    -0.03300
H1670       H  0.08145644  0.22838259  0.72492495     0.08800
H1671       H  0.18045095  0.33945543  0.77265618     0.06800
Br1672     Br  0.09723000  0.37999218  0.77661031     0.05800
C1673       C  0.91592405  0.36376071  0.94989709    -0.10400
C1674       C  0.93598559  0.32673444  0.96623648     0.05800
C1675       C  0.97047785  0.33425102  0.99405448    -0.04200
C1676       C  0.99887042  0.36540926  0.97992115    -0.08600
C1677       C  0.98448973  0.40113024  0.95540698     0.04900
C1678       C  0.94090003  0.40029237  0.94151481    -0.03700
Br1679     Br  0.91333419  0.44498971  0.90956482    -0.03300
H1680       H  0.88467713  0.36108793  0.93473742     0.08800
H1681       H  0.03192755  0.36133604  0.98789736     0.06800
Br1682     Br  0.98995428  0.29032285  0.03310361    -0.03800
C1683       C  0.81119381  0.18207908  0.81321966    -0.10400
C1684       C  0.80142229  0.22183945  0.79329038     0.05800
C1685       C  0.83023862  0.23692563  0.76118970    -0.04200
C1686       C  0.86175236  0.20934000  0.74563338    -0.08600
C1687       C  0.87621353  0.17595849  0.77250842     0.04900
C1688       C  0.84698025  0.15806392  0.80128909    -0.03700
Br1689     Br  0.86004922  0.10606360  0.83190059    -0.03300
H1690       H  0.79220553  0.17061465  0.83985734     0.08800
H1691       H  0.88371854  0.22221326  0.72206269     0.06800
Br1692     Br  0.83836553  0.29630063  0.74451112    -0.03800
C1693       C  0.89093728  0.02571398  0.91997198    -0.10400
C1694       C  0.89046146  0.02119296  0.96577987     0.05800
C1695       C  0.86034389  0.98968671  0.98116742    -0.04200
C1696       C  0.82751477  0.97544451  0.95285737    -0.08600
C1697       C  0.81875070  0.00219702  0.91741544     0.04900
C1698       C  0.85575094  0.01184073  0.89500942    -0.03700
Br1699     Br  0.86197790  0.99357213  0.83617356    -0.03300
H1700       H  0.91948216  0.03391463  0.90383164     0.08800
H1701       H  0.80232632  0.95533582  0.96540265     0.06800
Br1702     Br  0.85651103  0.96766937  0.03866279    -0.03800
C1703       C  0.98183939  0.07748270  0.87530281    -0.10400
C1704       C  0.00414934  0.08423595  0.91491816     0.05800
C1705       C  0.04876839  0.08602757  0.91158739    -0.04200
C1706       C  0.06720458  0.05991652  0.88170701    -0.08600
C1707       C  0.04292100  0.03909761  0.84915174     0.04900
C1708       C  0.00027779  0.05164091  0.84304038    -0.03700
Br1709     Br  0.96667135  0.03382759  0.79385689    -0.03300
H1710       H  0.94867264  0.08640553  0.87222848     0.08800
H1711       H  0.10102574  0.05420258  0.88642265     0.06800
Br1712     Br  0.08900034  0.11425831  0.94951599    -0.03800
C1713       C  0.02192457  0.93185645  0.01093195    -0.10400
C1714       C  0.98737374  0.94105797  0.98439745     0.05800
C1715       C  0.96461719  0.90705713  0.96417178    -0.04200
C1716       C  0.97390035  0.86434905  0.97583343    -0.08600
C1717       C  0.00310097  0.85605486  0.00982989     0.04900
C1718       C  0.02973129  0.89082811  0.02505925    -0.03700
Br1719     Br  0.06204826  0.89605554  0.07852205    -0.03300
H1720       H  0.03825279  0.95833741  0.02688083     0.08800
H1721       H  0.95361890  0.83879004  0.96335036     0.06800
Br1722     Br  0.91938673  0.91690999  0.92311084    -0.03800
C1723       C  0.07255500  0.02286693  0.98658772    -0.10400
C1724       C  0.04619279  0.00430459  0.95414718     0.05800
C1725       C  0.06090422  0.96815518  0.93157891    -0.04200
C1726       C  0.09612646  0.94676535  0.94837843    -0.08600
C1727       C  0.12005231  0.96291202  0.98434751     0.04900
C1728       C  0.11061309  0.00397122  0.00010761    -0.03700
Br1729     Br  0.14202927  0.03140141  0.04645052    -0.03300
H1730       H  0.06143478  0.04953035  0.00515015     0.08800
H1731       H  0.09861061  0.91378435  0.93810751     0.06800
Br1732     Br  0.02704819  0.93786145  0.88865135    -0.03800
C1733       C  0.98610960  0.97487160  0.12625392    -0.10400
C1734       C  0.98578150  0.01543465  0.14706114     0.05800
C1735       C  0.98715151  0.05180319  0.12063163    -0.04200
C1736       C  0.96945230  0.04836465  0.07930723    -0.08600
C1737       C  0.96248981  0.00839030  0.05880319     0.04900
C1738       C  0.96944767  0.97118121  0.08390325    -0.03700
Br1739     Br  0.94345150  0.91762088  0.06767132    -0.03300
H1740       H  0.98804201  0.94596208  0.14579974     0.08800
H1741       H  0.95702319  0.07725810  0.06612555     0.06800
Br1742     Br  0.99820755  0.10848282  0.14378135    -0.03800
C1743       C  0.00547269  0.12157709  0.01715014    -0.10400
C1744       C  0.96373399  0.11484717  0.00036285     0.05800
C1745       C  0.93848495  0.15209377  0.99966494    -0.04200
C1746       C  0.95871407  0.18995341  0.98586954    -0.08600
C1747       C  0.00342196  0.19155692  0.98511749     0.04900
C1748       C  0.02438086  0.16199754  0.01211886    -0.03700
Br1749     Br  0.07840975  0.17527705  0.03849510    -0.03300
H1750       H  0.02322740  0.09608758  0.03230340     0.08800
H1751       H  0.93981399  0.21692428  0.97433854     0.06800
Br1752     Br  0.91256132  0.16329190  0.05397897    -0.03800
loop_ 
_geom_bond_atom_site_label_1 
_geom_bond_atom_site_label_2 
_geom_bond_distance 
_geom_bond_site_symmetry_2 
_ccdc_geom_bond_type 
C1            C2   1.419   1_455  A
C1            C6   1.409   1_445  A
C1         C1724   1.480       .  S
C2            C3   1.415       .  A
C2         C1704   1.483   1_655  S
C3            C4   1.445       .  A
C3         C1744   1.516   1_556  S
C4            C5   1.394   1_556  A
C4         C1694   1.519       .  S
C5            C6   1.414   1_544  A
C5         C1737   1.502       .  S
C6         C1714   1.469       .  S
O7           C15   1.318       .  A
O7          Co27   2.196       .  S
O8           C16   1.277       .  A
O8          Co28   2.052       .  S
O9           C17   1.268       .  A
O9          Co29   2.008       .  S
O10          C18   1.256       .  A
O10         Co30   2.010       .  S
O11          C17   1.255       .  A
O11         Co28   1.945       .  S
O12          C18   1.246       .  A
O12         Co27   1.924       .  S
O13          C16   1.296       .  A
O13         Co30   2.121   1_655  S
O14          C15   1.283       .  A
O14         Co29   2.070   1_455  S
C15         C591   1.644       .  S
C16         C242   1.595       .  S
C17        C1687   1.471       .  S
C18        C1664   1.472       .  S
O19          C32   1.315       .  A
O19         Co27   2.104       .  S
O20          C33   1.284       .  A
O20         Co28   2.116       .  S
O21          C34   1.261       .  A
O21         Co29   1.973   1_455  S
O22          C35   1.269       .  A
O22         Co30   1.952   1_655  S
O23          C35   1.267       .  A
O23         Co28   1.987       .  S
O24          C34   1.244       .  A
O24         Co27   1.974       .  S
O25          C32   1.314       .  A
O25         Co30   2.113       .  S
O26          C33   1.276       .  A
O26         Co29   2.067       .  S
Co27         O31   2.129   1_455  S
Co28         O31   2.099       .  S
Co29         O31   2.138       .  S
Co30         O31   2.120   1_455  S
C32         C306   1.617       .  S
C33         C673   1.610       .  S
C34        C1747   1.470       .  S
C35        C1674   1.469       .  S
O36          C44   1.277       .  A
O36         Co56   2.079       .  S
O37          C45   1.290       .  A
O37         Co57   2.081       .  S
O38          C46   1.257       .  A
O38         Co58   1.960       .  S
O39          C47   1.250       .  A
O39         Co59   1.949       .  S
O40          C46   1.270       .  A
O40         Co57   1.959       .  S
O41          C47   1.239       .  A
O41         Co56   1.956       .  S
O42          C45   1.316       .  A
O42         Co59   2.201   1_565  S
O43          C44   1.294       .  A
O43         Co58   2.126   1_545  S
C44         C690   1.614       .  S
C45         C731   1.630       .  S
C46        C1634   1.458       .  S
C47        C1644   1.428       .  S
O48          C61   1.332       .  A
O48         Co56   2.269       .  S
O49          C62   1.302       .  A
O49         Co57   2.147       .  S
O50          C63   1.254   1_565  A
O50         Co58   1.952       .  S
O51          C64   1.245   1_545  A
O51         Co59   1.956       .  S
O52          C64   1.250       .  A
O52         Co57   1.944       .  S
O53          C63   1.273       .  A
O53         Co56   1.992       .  S
O54          C61   1.294       .  A
O54         Co59   2.086       .  S
O55          C62   1.285       .  A
O55         Co58   2.012       .  S
Co56         O60   2.113       .  S
Co57         O60   2.136   1_565  S
Co58         O60   2.007   1_565  S
Co59         O60   2.038       .  S
C61         C271   1.672       .  S
C62         C137   1.603       .  S
C63        C1734   1.475       .  S
C64        C1654   1.410       .  S
C65          C66   1.399   1_455  A
C65          C70   1.397       .  A
C65        C1594   1.439   1_565  S
C66          C67   1.363       .  A
C66        C1614   1.465   1_565  S
C67          C68   1.390       .  A
C67        C1657   1.446       .  S
C68          C69   1.423   1_655  A
C68        C1587   1.463       .  S
C69          C70   1.389       .  A
C69        C1627   1.486       .  S
C70        C1607   1.481       .  S
O71          C79   1.307       .  A
O71         Co91   2.148       .  S
O72          C80   1.295       .  A
O72         Co92   2.112       .  S
O73          C81   1.260       .  A
O73         Co93   1.932       .  S
O74          C82   1.254       .  A
O74         Co94   2.008       .  S
O75          C81   1.277       .  A
O75         Co92   1.965       .  S
O76          C82   1.230       .  A
O76         Co91   1.929       .  S
O77          C80   1.286       .  A
O77         Co94   2.147   1_655  S
O78          C79   1.299       .  A
O78         Co93   2.135   1_455  S
C79         C592   1.659       .  S
C80         C243   1.628       .  S
C81        C1574   1.429       .  S
C82        C1554   1.464       .  S
O83          C96   1.321       .  A
O83         Co91   2.146       .  S
O84          C97   1.306       .  A
O84         Co92   2.145       .  S
O85          C98   1.285   1_655  A
O85         Co93   2.044       .  S
O86          C99   1.248       .  A
O86         Co94   1.960   1_655  S
O87          C99   1.264       .  A
O87         Co92   2.025       .  S
O88          C98   1.232       .  A
O88         Co91   1.892       .  S
O89          C96   1.286       .  A
O89         Co94   2.078       .  S
O90          C97   1.295       .  A
O90         Co93   2.093       .  S
Co91         O95   2.089   1_455  S
Co92         O95   2.164       .  S
Co93         O95   2.047       .  S
Co94         O95   2.059   1_455  S
C96         C172   1.603       .  S
C97         C748   1.632       .  S
C98        C1624   1.478       .  S
C99        C1564   1.470       .  S
O100        C108   1.282       .  A
O100       Co120   2.089       .  S
O101        C109   1.313       .  A
O101       Co121   2.082       .  S
O102        C110   1.263       .  A
O102       Co122   2.039       .  S
O103        C111   1.247       .  A
O103       Co123   1.904       .  S
O104        C110   1.234       .  A
O104       Co121   1.923       .  S
O105        C111   1.289       .  A
O105       Co120   2.022       .  S
O106        C109   1.306       .  A
O106       Co123   2.095   1_556  S
O107        C108   1.303       .  A
O107       Co122   2.108   1_554  S
C108        C154   1.606       .  S
C109        C207   1.584       .  S
C110       C1524   1.482       .  S
C111       C1537   1.440       .  S
O112        C125   1.291       .  A
O112       Co120   2.095       .  S
O113        C126   1.311       .  A
O113       Co121   2.166       .  S
O114        C127   1.259       .  A
O114       Co122   1.948   1_554  S
O115        C128   1.239   1_554  A
O115       Co123   1.949       .  S
O116        C128   1.247       .  A
O116       Co121   1.944       .  S
O117        C127   1.280       .  A
O117       Co120   2.005       .  S
O118        C125   1.307       .  A
O118       Co123   2.153       .  S
O119        C126   1.283       .  A
O119       Co122   2.084       .  S
Co120       O124   2.101       .  S
Co121       O124   2.071   1_556  S
Co122       O124   2.158   1_556  S
Co123       O124   2.068       .  S
C125        C370   1.623       .  S
C126        C574   1.641       .  S
C127       C1727   1.470   1_554  S
C128       C1547   1.451       .  S
O129        C137   1.280       .  A
O129       Co149   1.987   1_655  S
O130        C138   1.296   1_655  A
O130       Co150   2.054       .  S
O131        C139   1.238       .  A
O131       Co151   1.912       .  S
O132        C140   1.282       .  A
O132       Co152   2.065       .  S
O133        C139   1.275       .  A
O133       Co150   2.005       .  S
O134        C140   1.224       .  A
O134       Co149   1.910       .  S
O135        C138   1.300       .  A
O135       Co152   2.115       .  S
O136        C137   1.318       .  A
O136       Co151   2.201       .  S
C138        C760   1.585       .  S
C139       C1504   1.461       .  S
C140       C1514   1.473       .  S
O141        C154   1.313       .  A
O141       Co149   2.182       .  S
O142        C155   1.299       .  A
O142       Co150   2.099       .  S
O143        C156   1.263       .  A
O143       Co151   1.998       .  S
O144        C157   1.260       .  A
O144       Co152   1.974       .  S
O145        C157   1.251   1_655  A
O145       Co150   1.933       .  S
O146        C156   1.236   1_455  A
O146       Co149   1.906       .  S
O147        C154   1.268       .  A
O147       Co152   2.037       .  S
O148        C155   1.307       .  A
O148       Co151   2.090       .  S
Co149       O153   1.967       .  S
Co150       O153   1.997   1_655  S
Co151       O153   2.171   1_655  S
Co152       O153   2.198       .  S
C155        C638   1.588       .  S
C156       C1717   1.471   1_655  S
C157       C1494   1.469       .  S
C158        C159   1.403       .  A
C158        C163   1.408       .  A
C158       C1464   1.494       .  S
C159        C160   1.390       .  A
C159       C1534   1.490       .  S
C160        C161   1.389       .  A
C160       C1517   1.462       .  S
C161        C162   1.389       .  A
C161       C1477   1.468       .  S
C162        C163   1.395       .  A
C162       C1484   1.452       .  S
C163       C1454   1.482       .  S
O164        C172   1.290       .  A
O164       Co184   2.100       .  S
O165        C173   1.304       .  A
O165       Co185   2.158       .  S
O166        C174   1.256       .  A
O166       Co186   1.949       .  S
O167        C175   1.271       .  A
O167       Co187   1.977       .  S
O168        C174   1.253       .  A
O168       Co185   1.963       .  S
O169        C175   1.260       .  A
O169       Co184   1.948       .  S
O170        C173   1.286       .  A
O170       Co187   2.104       .  S
O171        C172   1.278       .  A
O171       Co186   2.086       .  S
C173        C405   1.654       .  S
C174       C1444   1.492       .  S
C175       C1487   1.445       .  S
O176        C189   1.280       .  A
O176       Co184   2.069       .  S
O177        C190   1.293       .  A
O177       Co185   2.064       .  S
O178        C191   1.274       .  A
O178       Co186   2.045       .  S
O179        C192   1.276       .  A
O179       Co187   2.020       .  S
O180        C192   1.261       .  A
O180       Co185   1.930       .  S
O181        C191   1.248       .  A
O181       Co184   1.933       .  S
O182        C189   1.305       .  A
O182       Co187   2.161       .  S
O183        C190   1.315       .  A
O183       Co186   2.197       .  S
Co184       O188   2.054       .  S
Co185       O188   2.046       .  S
Co186       O188   2.176       .  S
Co187       O188   2.120       .  S
C189        C777   1.628       .  S
C190        C702   1.655       .  S
C191       C1434   1.466       .  S
C192       C1424   1.471       .  S
C193        C194   1.418       .  A
C193        C198   1.398       .  A
C193       C1394   1.409       .  S
C194        C195   1.384       .  A
C194       C1557   1.478       .  S
C195        C196   1.408       .  A
C195       C1447   1.514       .  S
C196        C197   1.388       .  A
C196       C1404   1.516       .  S
C197        C198   1.400       .  A
C197       C1414   1.412       .  S
C198       C1527   1.524       .  S
O199        C207   1.288       .  A
O199       Co219   2.134       .  S
O200        C208   1.306       .  A
O200       Co220   2.166       .  S
O201        C209   1.248       .  A
O201       Co221   1.988       .  S
O202        C210   1.246       .  A
O202       Co222   1.970       .  S
O203        C209   1.246       .  A
O203       Co220   1.936       .  S
O204        C210   1.299       .  A
O204       Co219   1.964       .  S
O205        C208   1.314       .  A
O205       Co222   2.163       .  S
O206        C207   1.302       .  A
O206       Co221   2.102       .  S
C208        C639   1.648       .  S
C209       C1364   1.476       .  S
C210       C1384   1.473       .  S
O211        C224   1.289       .  A
O211       Co219   2.085       .  S
O212        C225   1.279       .  A
O212       Co220   2.070       .  S
O213        C226   1.233       .  A
O213       Co221   1.898       .  S
O214        C227   1.239       .  A
O214       Co222   1.882       .  S
O215        C227   1.244       .  A
O215       Co220   1.903       .  S
O216        C226   1.264       .  A
O216       Co219   1.946       .  S
O217        C224   1.309       .  A
O217       Co222   2.186       .  S
O218        C225   1.312       .  A
O218       Co221   2.196       .  S
Co219       O223   2.222       .  S
Co220       O223   2.082       .  S
Co221       O223   2.243       .  S
Co222       O223   2.224       .  S
C224        C434   1.649       .  S
C225        C719   1.633       .  S
C226       C1417   1.411       .  S
C227       C1374   1.416       .  S
C228        C229   1.426       .  A
C228        C233   1.422       .  A
C228       C1344   1.466       .  S
C229        C230   1.403       .  A
C229       C1354   1.514       .  S
C230        C231   1.415       .  A
C230       C1684   1.510       .  S
C231        C232   1.422       .  A
C231       C1324   1.512       .  S
C232        C233   1.405       .  A
C232       C1317   1.529       .  S
C233       C1334   1.515       .  S
O234        C242   1.269       .  A
O234       Co254   2.055       .  S
O235        C243   1.290       .  A
O235       Co255   2.107       .  S
O236        C244   1.279       .  A
O236       Co256   1.990       .  S
O237        C245   1.273       .  A
O237       Co257   2.026       .  S
O238        C244   1.269       .  A
O238       Co255   1.944       .  S
O239        C245   1.248       .  A
O239       Co254   1.931       .  S
O240        C243   1.281       .  A
O240       Co257   2.141       .  S
O241        C242   1.285       .  A
O241       Co256   2.123       .  S
C244       C1284   1.480       .  S
C245       C1294   1.476       .  S
O246        C259   1.288       .  A
O246       Co254   2.130       .  S
O247        C260   1.293       .  A
O247       Co255   2.094       .  S
O248        C261   1.263       .  A
O248       Co256   1.941       .  S
O249        C262   1.241       .  A
O249       Co257   1.915       .  S
O250        C262   1.264       .  A
O250       Co255   2.006       .  S
O251        C261   1.273       .  A
O251       Co254   2.012       .  S
O252        C259   1.259       .  A
O252       Co257   2.040       .  S
O253        C260   1.284       .  A
O253       Co256   2.075       .  S
Co254       O258   2.093       .  S
Co255       O258   2.086       .  S
Co256       O258   2.120       .  S
Co257       O258   2.109       .  S
C259        C656   1.583       .  S
C260        C603   1.591       .  S
C261       C1357   1.461       .  S
C262       C1307   1.451       .  S
O263        C271   1.332       .  A
O263       Co283   2.248   1_655  S
O264        C272   1.289       .  A
O264       Co284   2.103   1_455  S
O265        C273   1.261       .  A
O265       Co285   1.964       .  S
O266        C274   1.267       .  A
O266       Co286   1.967       .  S
O267        C273   1.260       .  A
O267       Co284   1.980       .  S
O268        C274   1.254       .  A
O268       Co283   1.938       .  S
O269        C272   1.286       .  A
O269       Co286   2.102       .  S
O270        C271   1.308       .  A
O270       Co285   2.087       .  S
C272        C761   1.616       .  S
C273       C1264   1.458       .  S
C274       C1277   1.453       .  S
O275        C288   1.325       .  A
O275       Co283   2.222       .  S
O276        C289   1.292       .  A
O276       Co284   2.102       .  S
O277        C290   1.269       .  A
O277       Co285   1.992       .  S
O278        C291   1.246       .  A
O278       Co286   1.910       .  S
O279        C291   1.288       .  A
O279       Co284   2.024   1_455  S
O280        C290   1.242   1_455  A
O280       Co283   1.907       .  S
O281        C288   1.282       .  A
O281       Co286   2.067       .  S
O282        C289   1.316       .  A
O282       Co285   2.205       .  S
Co283       O287   2.129       .  S
Co284       O287   2.135   1_655  S
Co285       O287   2.074   1_655  S
Co286       O287   2.108       .  S
C288        C498   1.658       .  S
C289        C621   1.673       .  S
C290       C1617   1.448       .  S
C291       C1254   1.455       .  S
C292        C293   1.415       .  A
C292        C297   1.438       .  A
C292       C1204   1.501       .  S
C293        C294   1.382       .  A
C293       C1274   1.512       .  S
C294        C295   1.396       .  A
C294       C1214   1.470       .  S
C295        C296   1.398       .  A
C295       C1237   1.455       .  S
C296        C297   1.413       .  A
C296       C1224   1.517       .  S
C297       C1244   1.512       .  S
O298        C306   1.317       .  A
O298       Co318   2.133   1_556  S
O299        C307   1.279       .  A
O299       Co319   2.148   1_554  S
O300        C308   1.255       .  A
O300       Co320   1.944       .  S
O301        C309   1.264       .  A
O301       Co321   1.986       .  S
O302        C308   1.274       .  A
O302       Co319   2.005       .  S
O303        C309   1.253       .  A
O303       Co318   1.975       .  S
O304        C307   1.281       .  A
O304       Co321   2.102       .  S
O305        C306   1.308       .  A
O305       Co320   2.092       .  S
C307        C469   1.634       .  S
C308       C1194   1.475       .  S
C309       C1247   1.465       .  S
O310        C323   1.312       .  A
O310       Co318   2.180       .  S
O311        C324   1.269       .  A
O311       Co319   2.072       .  S
O312        C325   1.251       .  A
O312       Co320   1.980       .  S
O313        C326   1.270       .  A
O313       Co321   2.037       .  S
O314        C326   1.231       .  A
O314       Co319   1.908   1_554  S
O315        C325   1.250       .  A
O315       Co318   1.949   1_556  S
O316        C323   1.290       .  A
O316       Co321   2.095       .  S
O317        C324   1.303       .  A
O317       Co320   2.164       .  S
Co318       O322   2.095       .  S
Co319       O322   2.058   1_556  S
Co320       O322   2.124   1_556  S
Co321       O322   2.165       .  S
C323        C778   1.640       .  S
C324        C703   1.631       .  S
C325       C1177   1.466       .  S
C326       C1187   1.458       .  S
C327        C328   1.399       .  A
C327        C332   1.380       .  A
C327       C1134   1.464       .  S
C328        C329   1.410       .  A
C328       C1147   1.446       .  S
C329        C330   1.438       .  A
C329       C1667   1.527       .  S
C330        C331   1.425       .  A
C330       C1197   1.525       .  S
C331        C332   1.409       .  A
C331       C1154   1.501       .  S
C332       C1164   1.491       .  S
O333        C341   1.283       .  A
O333       Co353   2.098       .  S
O334        C342   1.306       .  A
O334       Co354   2.173       .  S
O335        C343   1.234       .  A
O335       Co355   1.924       .  S
O336        C344   1.269       .  A
O336       Co356   1.975       .  S
O337        C343   1.265       .  A
O337       Co354   1.963       .  S
O338        C344   1.273       .  A
O338       Co353   1.977       .  S
O339        C342   1.279       .  A
O339       Co356   2.060       .  S
O340        C341   1.301       .  A
O340       Co355   2.134       .  S
C341        C620   1.625       .  S
C342        C499   1.627       .  S
C343       C1124   1.446       .  S
C344       C1117   1.467       .  S
O345        C358   1.285       .  A
O345       Co353   2.092       .  S
O346        C359   1.304       .  A
O346       Co354   2.082       .  S
O347        C360   1.264       .  A
O347       Co355   1.914       .  S
O348        C361   1.267       .  A
O348       Co356   1.973       .  S
O349        C361   1.261       .  A
O349       Co354   1.986       .  S
O350        C360   1.278       .  A
O350       Co353   2.044       .  S
O351        C358   1.277       .  A
O351       Co356   2.084       .  S
O352        C359   1.323       .  A
O352       Co355   2.174       .  S
Co353       O357   2.140       .  S
Co354       O357   2.127       .  S
Co355       O357   2.146       .  S
Co356       O357   2.153       .  S
C358        C720   1.604       .  S
C359        C435   1.640       .  S
C360       C1337   1.495       .  S
C361       C1167   1.471       .  S
O362        C370   1.344       .  A
O362       Co382   2.241   1_565  S
O363        C371   1.275   1_565  A
O363       Co383   1.963       .  S
O364        C372   1.263       .  A
O364       Co384   1.973       .  S
O365        C373   1.244       .  A
O365       Co385   1.906       .  S
O366        C372   1.241       .  A
O366       Co383   1.925       .  S
O367        C373   1.270       .  A
O367       Co382   1.972       .  S
O368        C371   1.342       .  A
O368       Co385   2.265       .  S
O369        C370   1.294       .  A
O369       Co384   1.999       .  S
C371        C515   1.625       .  S
C372       C1467   1.432       .  S
C373       C1234   1.440       .  S
O374        C387   1.321       .  A
O374       Co382   2.198       .  S
O375        C388   1.300       .  A
O375       Co383   2.110       .  S
O376        C389   1.267       .  A
O376       Co384   1.945       .  S
O377        C390   1.224       .  A
O377       Co385   1.898       .  S
O378        C390   1.262   1_565  A
O378       Co383   1.996       .  S
O379        C389   1.245   1_545  A
O379       Co382   1.857       .  S
O380        C387   1.285       .  A
O380       Co385   2.073       .  S
O381        C388   1.304       .  A
O381       Co384   2.096       .  S
Co382       O386   2.058   1_545  S
Co383       O386   1.969       .  S
Co384       O386   1.996       .  S
Co385       O386   2.109   1_545  S
C387        C486   1.635       .  S
C388        C422   1.591       .  S
C389       C1097   1.413       .  S
C390       C1107   1.426       .  S
C391        C392   1.436       .  A
C391        C396   1.398       .  A
C391       C1127   1.486       .  S
C392        C393   1.403       .  A
C392       C1074   1.489       .  S
C393        C394   1.398   1_545  A
C393       C1054   1.499       .  S
C394        C395   1.397   1_565  A
C394       C1087   1.488       .  S
C395        C396   1.393       .  A
C395       C1104   1.520       .  S
C396       C1064   1.496       .  S
O397        C405   1.310       .  A
O397       Co417   2.160       .  S
O398        C406   1.298       .  A
O398       Co418   2.065       .  S
O399        C407   1.277       .  A
O399       Co419   2.007       .  S
O400        C408   1.226       .  A
O400       Co420   1.871       .  S
O401        C407   1.247       .  A
O401       Co418   1.929       .  S
O402        C408   1.270       .  A
O402       Co417   2.039       .  S
O403        C406   1.313       .  A
O403       Co420   2.191       .  S
O404        C405   1.289       .  A
O404       Co419   2.111       .  S
C406        C749   1.634       .  S
C407       C1037   1.446       .  S
C408       C1084   1.446       .  S
O409        C422   1.294       .  A
O409       Co417   2.033       .  S
O410        C423   1.310       .  A
O410       Co418   2.171       .  S
O411        C424   1.279       .  A
O411       Co419   2.026       .  S
O412        C425   1.241       .  A
O412       Co420   1.921       .  S
O413        C425   1.272       .  A
O413       Co418   2.004       .  S
O414        C424   1.266       .  A
O414       Co417   1.968       .  S
O415        C422   1.301       .  A
O415       Co420   2.154       .  S
O416        C423   1.298       .  A
O416       Co419   2.104       .  S
Co417       O421   2.068       .  S
Co418       O421   2.047       .  S
Co419       O421   2.075       .  S
Co420       O421   2.096       .  S
C423        C533   1.642       .  S
C424       C1457   1.473       .  S
C425       C1044   1.466       .  S
O426        C434   1.335       .  A
O426       Co446   2.235       .  S
O427        C435   1.327       .  A
O427       Co447   2.136       .  S
O428        C436   1.273       .  A
O428       Co448   2.001   1_545  S
O429        C437   1.241       .  A
O429       Co449   1.951   1_565  S
O430        C436   1.237       .  A
O430       Co447   1.916       .  S
O431        C437   1.261       .  A
O431       Co446   1.990       .  S
O432        C435   1.311       .  A
O432       Co449   2.098       .  S
O433        C434   1.297       .  A
O433       Co448   2.028       .  S
C436       C1024   1.465       .  S
C437       C1077   1.452       .  S
O438        C451   1.284       .  A
O438       Co446   2.079       .  S
O439        C452   1.306       .  A
O439       Co447   2.118       .  S
O440        C453   1.262       .  A
O440       Co448   2.013       .  S
O441        C454   1.258       .  A
O441       Co449   2.052       .  S
O442        C454   1.232       .  A
O442       Co447   1.904       .  S
O443        C453   1.252       .  A
O443       Co446   1.943       .  S
O444        C451   1.312       .  A
O444       Co449   2.164   1_565  S
O445        C452   1.297       .  A
O445       Co448   2.101   1_545  S
Co446       O450   2.156       .  S
Co447       O450   2.049   1_545  S
Co448       O450   2.054       .  S
Co449       O450   2.126   1_545  S
C451        C732   1.626       .  S
C452        C691   1.614       .  S
C453       C1014   1.475       .  S
C454       C1314   1.478       .  S
C455        C456   1.408   1_545  A
C455        C460   1.438       .  A
C455       C1027   1.526       .  S
C456        C457   1.386       .  A
C456       C1387   1.451       .  S
C457        C458   1.373   1_565  A
C457       C1544   1.470       .  S
C458        C459   1.377       .  A
C458       C1094   1.437   1_556  S
C459        C460   1.416       .  A
C459       C1007   1.470   1_556  S
C460        C994   1.534       .  S
O461        C469   1.308       .  A
O461       Co481   2.093       .  S
O462        C470   1.331       .  A
O462       Co482   2.277       .  S
O463        C471   1.261       .  A
O463       Co483   1.966       .  S
O464        C472   1.244       .  A
O464       Co484   1.957       .  S
O465        C471   1.253       .  A
O465       Co482   1.938       .  S
O466        C472   1.244       .  A
O466       Co481   1.965       .  S
O467        C470   1.286       .  A
O467       Co484   2.026       .  S
O468        C469   1.324       .  A
O468       Co483   2.155       .  S
C470        C674   1.652       .  S
C471        C974   1.433       .  S
C472       C1004   1.438       .  S
O473        C486   1.297       .  A
O473       Co481   2.103       .  S
O474        C487   1.296       .  A
O474       Co482   2.140       .  S
O475        C488   1.246       .  A
O475       Co483   1.973       .  S
O476        C489   1.263       .  A
O476       Co484   2.023       .  S
O477        C489   1.238       .  A
O477       Co482   1.949       .  S
O478        C488   1.248       .  A
O478       Co481   1.929       .  S
O479        C486   1.318       .  A
O479       Co484   2.169       .  S
O480        C487   1.300       .  A
O480       Co483   2.155       .  S
Co481       O485   2.129       .  S
Co482       O485   2.146       .  S
Co483       O485   2.109       .  S
Co484       O485   2.039       .  S
C487        C534   1.661       .  S
C488       C1227   1.469       .  S
C489        C984   1.468       .  S
O490        C498   1.298       .  A
O490       Co510   2.190       .  S
O491        C499   1.301       .  A
O491       Co511   2.215       .  S
O492        C500   1.246       .  A
O492       Co512   1.940       .  S
O493        C501   1.265       .  A
O493       Co513   1.957       .  S
O494        C500   1.284       .  A
O494       Co511   1.883       .  S
O495        C501   1.256       .  A
O495       Co510   1.958       .  S
O496        C499   1.279       .  A
O496       Co513   2.063       .  S
O497        C498   1.292       .  A
O497       Co512   2.102       .  S
C500       C1137   1.488       .  S
C501       C1217   1.450       .  S
O502        C515   1.296       .  A
O502       Co510   2.108       .  S
O503        C516   1.291       .  A
O503       Co511   2.112       .  S
O504        C517   1.250       .  A
O504       Co512   1.898       .  S
O505        C518   1.277       .  A
O505       Co513   2.006       .  S
O506        C518   1.235       .  A
O506       Co511   1.916       .  S
O507        C517   1.259       .  A
O507       Co510   1.918       .  S
O508        C515   1.285       .  A
O508       Co513   2.122       .  S
O509        C516   1.299       .  A
O509       Co512   2.151       .  S
Co510       O514   2.201       .  S
Co511       O514   2.266       .  S
Co512       O514   2.220       .  S
Co513       O514   2.160       .  S
C516        C575   1.656       .  S
C517       C1597   1.431       .  S
C518       C1067   1.442       .  S
C519        C520   1.396       .  A
C519        C524   1.409       .  A
C519       C1637   1.495       .  S
C520        C521   1.389       .  A
C520       C1507   1.473       .  S
C521        C522   1.394       .  A
C521        C954   1.465       .  S
C522        C523   1.413       .  A
C522        C967   1.474       .  S
C523        C524   1.418       .  A
C523       C1047   1.500       .  S
C524        C944   1.510       .  S
O525        C533   1.327       .  A
O525       Co545   2.216       .  S
O526        C534   1.284       .  A
O526       Co546   2.098       .  S
O527        C535   1.258       .  A
O527       Co547   2.020       .  S
O528        C536   1.253       .  A
O528       Co548   1.976       .  S
O529        C535   1.236       .  A
O529       Co546   1.945       .  S
O530        C536   1.243       .  A
O530       Co545   1.928       .  S
O531        C534   1.311       .  A
O531       Co548   2.193       .  S
O532        C533   1.290       .  A
O532       Co547   2.068       .  S
C535        C914   1.487       .  S
C536        C924   1.456       .  S
O537        C550   1.333       .  A
O537       Co545   2.189       .  S
O538        C551   1.281       .  A
O538       Co546   2.117       .  S
O539        C552   1.267       .  A
O539       Co547   1.992       .  S
O540        C553   1.256       .  A
O540       Co548   1.970       .  S
O541        C553   1.244       .  A
O541       Co546   1.925       .  S
O542        C552   1.255       .  A
O542       Co545   1.961       .  S
O543        C550   1.318       .  A
O543       Co548   2.116       .  S
O544        C551   1.276       .  A
O544       Co547   2.111       .  S
Co545       O549   2.119       .  S
Co546       O549   2.125       .  S
Co547       O549   2.244       .  S
Co548       O549   2.153       .  S
C550        C604   1.657       .  S
C551        C655   1.632       .  S
C552        C964   1.455       .  S
C553        C934   1.437       .  S
C554        C555   1.377       .  A
C554        C559   1.408       .  A
C554       C1267   1.468       .  S
C555        C556   1.376       .  A
C555       C1647   1.453       .  S
C556        C557   1.398       .  A
C556        C897   1.447       .  S
C557        C558   1.380       .  A
C557        C987   1.453       .  S
C558        C559   1.388       .  A
C558        C937   1.469       .  S
C559        C904   1.435       .  S
C560        C561   1.390       .  A
C560        C565   1.405       .  A
C560        C874   1.493       .  S
C561        C562   1.419       .  A
C561       C1577   1.499       .  S
C562        C563   1.391       .  A
C562       C1304   1.463       .  S
C563        C564   1.404       .  A
C563        C884   1.503       .  S
C564        C565   1.410       .  A
C564       C1377   1.435       .  S
C565       C1017   1.492       .  S
O566        C574   1.285       .  A
O566       Co586   2.084   1_565  S
O567        C575   1.305       .  A
O567       Co587   2.130   1_545  S
O568        C576   1.260       .  A
O568       Co588   1.928       .  S
O569        C577   1.270       .  A
O569       Co589   1.946       .  S
O570        C576   1.278       .  A
O570       Co587   1.946       .  S
O571        C577   1.252       .  A
O571       Co586   1.934       .  S
O572        C575   1.307       .  A
O572       Co589   2.156       .  S
O573        C574   1.314       .  A
O573       Co588   2.207       .  S
C576       C1397   1.442       .  S
C577       C1144   1.433       .  S
O578        C591   1.315       .  A
O578       Co586   2.215       .  S
O579        C592   1.295       .  A
O579       Co587   2.144       .  S
O580        C593   1.268   1_565  A
O580       Co588   2.006       .  S
O581        C594   1.248       .  A
O581       Co589   1.908       .  S
O582        C594   1.276   1_565  A
O582       Co587   1.960       .  S
O583        C593   1.252   1_565  A
O583       Co586   1.928   1_565  S
O584        C591   1.279       .  A
O584       Co589   2.051       .  S
O585        C592   1.310       .  A
O585       Co588   2.147       .  S
Co586       O590   2.148   1_545  S
Co587       O590   2.108       .  S
Co588       O590   2.132       .  S
Co589       O590   2.039   1_545  S
C593       C1707   1.462       .  S
C594       C1604   1.431       .  S
O595        C603   1.298       .  A
O595       Co615   2.175       .  S
O596        C604   1.300       .  A
O596       Co616   2.185       .  S
O597        C605   1.286       .  A
O597       Co617   1.999       .  S
O598        C606   1.233       .  A
O598       Co618   1.931       .  S
O599        C605   1.247       .  A
O599       Co616   1.915       .  S
O600        C606   1.245       .  A
O600       Co615   1.946       .  S
O601        C604   1.298       .  A
O601       Co618   2.140       .  S
O602        C603   1.268       .  A
O602       Co617   2.029       .  S
C605        C867   1.458       .  S
C606        C854   1.439       .  S
O607        C620   1.297       .  A
O607       Co615   2.099       .  S
O608        C621   1.309       .  A
O608       Co616   2.205       .  S
O609        C622   1.262       .  A
O609       Co617   2.037       .  S
O610        C623   1.254       .  A
O610       Co618   1.925       .  S
O611        C623   1.224       .  A
O611       Co616   1.928       .  S
O612        C622   1.244       .  A
O612       Co615   1.942       .  S
O613        C620   1.319       .  A
O613       Co618   2.173       .  S
O614        C621   1.289       .  A
O614       Co617   2.122       .  S
Co615       O619   2.064       .  S
Co616       O619   2.111       .  S
Co617       O619   2.155       .  S
Co618       O619   2.183       .  S
C622       C1347   1.478       .  S
C623        C907   1.426       .  S
C624        C625   1.417       .  A
C624        C629   1.397       .  A
C624       C1437   1.485       .  S
C625        C626   1.402   1_455  A
C625       C1567   1.473   1_455  S
C626        C627   1.394       .  A
C626       C1287   1.493       .  S
C627        C628   1.384   1_655  A
C627        C864   1.483       .  S
C628        C629   1.423       .  A
C628       C1257   1.483       .  S
C629        C847   1.468       .  S
O630        C638   1.290       .  A
O630       Co650   2.128       .  S
O631        C639   1.336       .  A
O631       Co651   2.225       .  S
O632        C640   1.269       .  A
O632       Co652   1.995       .  S
O633        C641   1.260       .  A
O633       Co653   1.950       .  S
O634        C640   1.261       .  A
O634       Co651   1.950       .  S
O635        C641   1.279       .  A
O635       Co650   1.978       .  S
O636        C639   1.298       .  A
O636       Co653   2.058   1_556  S
O637        C638   1.283       .  A
O637       Co652   2.046   1_554  S
C640        C887   1.476       .  S
C641        C957   1.461       .  S
O642        C655   1.268       .  A
O642       Co650   2.046       .  S
O643        C656   1.298       .  A
O643       Co651   2.163       .  S
O644        C657   1.248       .  A
O644       Co652   1.880   1_554  S
O645        C658   1.268       .  A
O645       Co653   2.005   1_556  S
O646        C658   1.227       .  A
O646       Co651   1.887       .  S
O647        C657   1.238       .  A
O647       Co650   2.010       .  S
O648        C655   1.309       .  A
O648       Co653   2.177       .  S
O649        C656   1.262       .  A
O649       Co652   2.022       .  S
Co650       O654   2.229       .  S
Co651       O654   2.158   1_556  S
Co652       O654   2.170   1_556  S
Co653       O654   2.098       .  S
C657        C827   1.432       .  S
C658        C834   1.432       .  S
C659        C660   1.374       .  A
C659        C664   1.387   1_556  A
C659        C814   1.414       .  S
C660        C661   1.384       .  A
C660       C1367   1.493       .  S
C661        C662   1.418   1_556  A
C661        C837   1.513       .  S
C662        C663   1.433       .  A
C662        C917   1.475       .  S
C663        C664   1.400       .  A
C663        C977   1.484       .  S
C664       C1184   1.486       .  S
O665        C673   1.285       .  A
O665       Co685   2.089       .  S
O666        C674   1.304       .  A
O666       Co686   2.086   1_554  S
O667        C675   1.271       .  A
O667       Co687   1.958       .  S
O668        C676   1.239       .  A
O668       Co688   1.915       .  S
O669        C675   1.261       .  A
O669       Co686   1.973       .  S
O670        C676   1.259       .  A
O670       Co685   1.989   1_554  S
O671        C674   1.313       .  A
O671       Co688   2.183       .  S
O672        C673   1.289       .  A
O672       Co687   2.106       .  S
C675       C1327   1.477       .  S
C676        C894   1.438       .  S
O677        C690   1.272       .  A
O677       Co685   2.061   1_554  S
O678        C691   1.290       .  A
O678       Co686   2.100       .  S
O679        C692   1.273       .  A
O679       Co687   2.010       .  S
O680        C693   1.254       .  A
O680       Co688   1.991       .  S
O681        C693   1.245       .  A
O681       Co686   1.927   1_554  S
O682        C692   1.265       .  A
O682       Co685   1.943       .  S
O683        C690   1.294       .  A
O683       Co688   2.164       .  S
O684        C691   1.284       .  A
O684       Co687   2.091       .  S
Co685       O689   2.083       .  S
Co686       O689   2.020       .  S
Co687       O689   2.145       .  S
Co688       O689   2.206   1_554  S
C692       C1697   1.486       .  S
C693        C997   1.465   1_545  S
O694        C702   1.327       .  A
O694       Co714   2.212       .  S
O695        C703   1.298       .  A
O695       Co715   2.042       .  S
O696        C704   1.274       .  A
O696       Co716   1.996       .  S
O697        C705   1.256       .  A
O697       Co717   1.964       .  S
O698        C704   1.261       .  A
O698       Co715   1.929       .  S
O699        C705   1.265       .  A
O699       Co714   1.967       .  S
O700        C703   1.328       .  A
O700       Co717   2.223       .  S
O701        C702   1.275       .  A
O701       Co716   2.058       .  S
C704       C1157   1.465       .  S
C705       C1407   1.461       .  S
O706        C719   1.302       .  A
O706       Co714   2.031       .  S
O707        C720   1.303       .  A
O707       Co715   2.155       .  S
O708        C721   1.277       .  A
O708       Co716   1.978       .  S
O709        C722   1.238       .  A
O709       Co717   1.904       .  S
O710        C722   1.254       .  A
O710       Co715   1.959       .  S
O711        C721   1.241       .  A
O711       Co714   1.932       .  S
O712        C719   1.319       .  A
O712       Co717   2.194       .  S
O713        C720   1.269       .  A
O713       Co716   2.049       .  S
Co714       O718   2.001       .  S
Co715       O718   2.013       .  S
Co716       O718   2.022       .  S
Co717       O718   2.113       .  S
C721        C804   1.461       .  S
C722        C817   1.423       .  S
O723        C731   1.304       .  A
O723       Co743   2.182       .  S
O724        C732   1.313       .  A
O724       Co744   2.189       .  S
O725        C733   1.258       .  A
O725       Co745   1.958       .  S
O726        C734   1.257       .  A
O726       Co746   2.009       .  S
O727        C733   1.269       .  A
O727       Co744   1.949       .  S
O728        C734   1.249       .  A
O728       Co743   1.962       .  S
O729        C732   1.294       .  A
O729       Co746   2.040       .  S
O730        C731   1.288       .  A
O730       Co745   2.097       .  S
C733       C1057   1.477   1_565  S
C734       C1584   1.480       .  S
O735        C748   1.285       .  A
O735       Co743   2.092       .  S
O736        C749   1.291       .  A
O736       Co744   2.134       .  S
O737        C750   1.269       .  A
O737       Co745   1.955       .  S
O738        C751   1.280       .  A
O738       Co746   1.977       .  S
O739        C751   1.238       .  A
O739       Co744   1.899       .  S
O740        C750   1.241       .  A
O740       Co743   1.925       .  S
O741        C748   1.314       .  A
O741       Co746   2.169       .  S
O742        C749   1.279       .  A
O742       Co745   2.087       .  S
Co743       O747   2.062       .  S
Co744       O747   2.177       .  S
Co745       O747   2.093       .  S
Co746       O747   2.096       .  S
C750        C947   1.440       .  S
C751        C877   1.458       .  S
O752        C760   1.285       .  A
O752       Co772   2.069       .  S
O753        C761   1.268       .  A
O753       Co773   2.051       .  S
O754        C762   1.269       .  A
O754       Co774   2.012       .  S
O755        C763   1.247       .  A
O755       Co775   1.895       .  S
O756        C762   1.241       .  A
O756       Co773   1.934       .  S
O757        C763   1.250       .  A
O757       Co772   1.970       .  S
O758        C761   1.307       .  A
O758       Co775   2.167       .  S
O759        C760   1.313       .  A
O759       Co774   2.139       .  S
C762        C794   1.454       .  S
C763        C844   1.455       .  S
O764        C777   1.333       .  A
O764       Co772   2.212       .  S
O765        C778   1.328       .  A
O765       Co773   2.228       .  S
O766        C779   1.260       .  A
O766       Co774   1.989       .  S
O767        C780   1.240       .  A
O767       Co775   1.926       .  S
O768        C780   1.277       .  A
O768       Co773   1.991       .  S
O769        C779   1.253       .  A
O769       Co772   1.948       .  S
O770        C777   1.298       .  A
O770       Co775   2.040       .  S
O771        C778   1.296       .  A
O771       Co774   2.037       .  S
Co772       O776   2.088       .  S
Co773       O776   2.095       .  S
Co774       O776   2.087       .  S
Co775       O776   2.088       .  S
C779       C1474   1.455       .  S
C780       C1207   1.454       .  S
C781        C782   1.418       .  A
C781        C786   1.430       .  A
C781       C1034   1.502       .  S
C782        C783   1.433       .  A
C782       C1427   1.530       .  S
C783        C784   1.400       .  A
C783        C807   1.526       .  S
C784        C785   1.385       .  A
C784       C1114   1.508       .  S
C785        C786   1.390       .  A
C785        C857   1.464       .  S
C786        C927   1.478       .  S
C787        C788   1.407   1_655  A
C787        C792   1.430       .  A
C787       C1297   1.519       .  S
C788        C789   1.411       .  A
C788       C1677   1.514   1_455  S
C789        C790   1.420   1_556  A
C789       C1174   1.509       .  S
C790        C791   1.393       .  A
C790        C797   1.510       .  S
C791        C792   1.426   1_454  A
C791       C1497   1.483       .  S
C792        C824   1.449   1_556  S
C793        C794   1.398       .  A
C793        C798   1.387       .  A
C793        H800   1.079       .  S
C794        C795   1.387       .  A
C795        C796   1.398   1_455  A
C795       Br802   1.914   1_455  S
C796        C797   1.422   1_655  A
C796        H801   1.074       .  S
C797        C798   1.393       .  A
C798       Br799   1.891       .  S
C803        C804   1.388       .  A
C803        C808   1.405       .  A
C803        H810   1.084       .  S
C804        C805   1.384       .  A
C805        C806   1.390       .  A
C805       Br812   1.904       .  S
C806        C807   1.440       .  A
C806        H811   1.081       .  S
C807        C808   1.434       .  A
C808       Br809   1.879       .  S
C813        C814   1.368       .  A
C813        C818   1.352       .  A
C813        H820   1.084       .  S
C814        C815   1.400       .  A
C815        C816   1.381       .  A
C815       Br822   1.912       .  S
C816        C817   1.395       .  A
C816        H821   1.083       .  S
C817        C818   1.429       .  A
C818       Br819   1.914       .  S
C823        C824   1.409       .  A
C823        C828   1.384       .  A
C823        H830   1.073       .  S
C824        C825   1.398       .  A
C825        C826   1.370       .  A
C825       Br832   1.922   1_554  S
C826        C827   1.395       .  A
C826        H831   1.065       .  S
C827        C828   1.392       .  A
C828       Br829   1.918       .  S
C833        C834   1.397       .  A
C833        C838   1.396       .  A
C833        H840   1.081       .  S
C834        C835   1.421       .  A
C835        C836   1.396       .  A
C835       Br842   1.917       .  S
C836        C837   1.392       .  A
C836        H841   1.075       .  S
C837        C838   1.406       .  A
C838       Br839   1.907       .  S
C843        C844   1.412       .  A
C843        C848   1.395       .  A
C843        H850   1.077       .  S
C844        C845   1.397       .  A
C845        C846   1.394       .  A
C845       Br852   1.917   1_455  S
C846        C847   1.410       .  A
C846        H851   1.068       .  S
C847        C848   1.377       .  A
C848       Br849   1.906       .  S
C853        C854   1.393       .  A
C853        C858   1.395       .  A
C853        H860   1.084       .  S
C854        C855   1.423       .  A
C855        C856   1.360       .  A
C855       Br862   1.923       .  S
C856        C857   1.373       .  A
C856        H861   1.073       .  S
C857        C858   1.423       .  A
C858       Br859   1.911       .  S
C863        C864   1.418       .  A
C863        C868   1.395       .  A
C863        H870   1.077       .  S
C864        C865   1.429       .  A
C865        C866   1.398       .  A
C865       Br872   1.901       .  S
C866        C867   1.389       .  A
C866        H871   1.085       .  S
C867        C868   1.394       .  A
C868       Br869   1.910       .  S
C873        C874   1.417       .  A
C873        C878   1.392       .  A
C873        H880   1.071       .  S
C874        C875   1.439       .  A
C875        C876   1.397       .  A
C875       Br882   1.912       .  S
C876        C877   1.382       .  A
C876        H881   1.084       .  S
C877        C878   1.393       .  A
C878       Br879   1.916       .  S
C883        C884   1.411       .  A
C883        C888   1.392       .  A
C883        H890   1.058       .  S
C884        C885   1.403       .  A
C885        C886   1.399       .  A
C885       Br892   1.921       .  S
C886        C887   1.415       .  A
C886        H891   1.077       .  S
C887        C888   1.393       .  A
C888       Br889   1.917       .  S
C893        C894   1.400       .  A
C893        C898   1.393       .  A
C893        H900   1.084       .  S
C894        C895   1.425       .  A
C895        C896   1.363       .  A
C895       Br902   1.940       .  S
C896        C897   1.378       .  A
C896        H901   1.082       .  S
C897        C898   1.405       .  A
C898       Br899   1.918       .  S
C903        C904   1.375       .  A
C903        C908   1.354       .  A
C903        H910   1.084       .  S
C904        C905   1.410       .  A
C905        C906   1.380       .  A
C905       Br912   1.919       .  S
C906        C907   1.392       .  A
C906        H911   1.084       .  S
C907        C908   1.434       .  A
C908       Br909   1.948       .  S
C913        C914   1.408       .  A
C913        C918   1.372       .  A
C913        H920   1.066       .  S
C914        C915   1.415       .  A
C915        C916   1.418       .  A
C915       Br922   1.914       .  S
C916        C917   1.420       .  A
C916        H921   1.082       .  S
C917        C918   1.383       .  A
C918       Br919   1.915       .  S
C923        C924   1.406       .  A
C923        C928   1.379       .  A
C923        H930   1.064       .  S
C924        C925   1.390       .  A
C925        C926   1.397       .  A
C925       Br932   1.913       .  S
C926        C927   1.418       .  A
C926        H931   1.069       .  S
C927        C928   1.397       .  A
C928       Br929   1.915       .  S
C933        C934   1.394       .  A
C933        C938   1.377       .  A
C933        H940   1.076       .  S
C934        C935   1.397       .  A
C935        C936   1.383       .  A
C935       Br942   1.922       .  S
C936        C937   1.415       .  A
C936        H941   1.079       .  S
C937        C938   1.394       .  A
C938       Br939   1.918       .  S
C943        C944   1.424       .  A
C943        C948   1.389       .  A
C943        H950   1.075       .  S
C944        C945   1.425       .  A
C945        C946   1.398       .  A
C945       Br952   1.899       .  S
C946        C947   1.393       .  A
C946        H951   1.083       .  S
C947        C948   1.385       .  A
C948       Br949   1.923       .  S
C953        C954   1.418       .  A
C953        C958   1.395       .  A
C953        H960   1.083       .  S
C954        C955   1.392       .  A
C955        C956   1.388       .  A
C955       Br962   1.913       .  S
C956        C957   1.396       .  A
C956        H961   1.067       .  S
C957        C958   1.398       .  A
C958       Br959   1.916       .  S
C963        C964   1.400       .  A
C963        C968   1.398       .  A
C963        H970   1.075       .  S
C964        C965   1.399       .  A
C965        C966   1.393       .  A
C965       Br972   1.915       .  S
C966        C967   1.402       .  A
C966        H971   1.067       .  S
C967        C968   1.394       .  A
C968       Br969   1.902       .  S
C973        C974   1.386       .  A
C973        C978   1.370       .  A
C973        H980   1.079       .  S
C974        C975   1.403       .  A
C975        C976   1.395       .  A
C975       Br982   1.918       .  S
C976        C977   1.413       .  A
C976        H981   1.071       .  S
C977        C978   1.394       .  A
C978       Br979   1.917       .  S
C983        C984   1.406       .  A
C983        C988   1.360       .  A
C983        H990   1.072       .  S
C984        C985   1.403       .  A
C985        C986   1.408       .  A
C985       Br992   1.915       .  S
C986        C987   1.419       .  A
C986        H991   1.082       .  S
C987        C988   1.382       .  A
C988       Br989   1.919       .  S
C993        C994   1.428   1_554  A
C993        C998   1.397       .  A
C993       H1000   1.073       .  S
C994        C995   1.436   1_545  A
C995        C996   1.409   1_556  A
C995      Br1002   1.895       .  S
C996        C997   1.396       .  A
C996       H1001   1.084       .  S
C997        C998   1.390   1_565  A
C998       Br999   1.918       .  S
C1003      C1004   1.391       .  A
C1003      C1008   1.385       .  A
C1003      H1010   1.070       .  S
C1004      C1005   1.395   1_554  A
C1005      C1006   1.391       .  A
C1005     Br1012   1.913       .  S
C1006      C1007   1.408   1_556  A
C1006      H1011   1.066       .  S
C1007      C1008   1.409       .  A
C1008     Br1009   1.933       .  S
C1013      C1014   1.398       .  A
C1013      C1018   1.396       .  A
C1013      H1020   1.059       .  S
C1014      C1015   1.385       .  A
C1015      C1016   1.407       .  A
C1015     Br1022   1.914       .  S
C1016      C1017   1.418       .  A
C1016      H1021   1.065       .  S
C1017      C1018   1.406       .  A
C1018     Br1019   1.915       .  S
C1023      C1024   1.406       .  A
C1023      C1028   1.409       .  A
C1023      H1030   1.077       .  S
C1024      C1025   1.376       .  A
C1025      C1026   1.380       .  A
C1025     Br1032   1.910       .  S
C1026      C1027   1.436       .  A
C1026      H1031   1.067       .  S
C1027      C1028   1.414       .  A
C1028     Br1029   1.911       .  S
C1033      C1034   1.415       .  A
C1033      C1038   1.389       .  A
C1033      H1040   1.069       .  S
C1034      C1035   1.428       .  A
C1035      C1036   1.394       .  A
C1035     Br1042   1.904       .  S
C1036      C1037   1.387       .  A
C1036      H1041   1.085       .  S
C1037      C1038   1.389       .  A
C1038     Br1039   1.916       .  S
C1043      C1044   1.384       .  A
C1043      C1048   1.393       .  A
C1043      H1050   1.085       .  S
C1044      C1045   1.395       .  A
C1045      C1046   1.392       .  A
C1045     Br1052   1.917       .  S
C1046      C1047   1.417       .  A
C1046      H1051   1.069       .  S
C1047      C1048   1.423       .  A
C1048     Br1049   1.877       .  S
C1053      C1054   1.422       .  A
C1053      C1058   1.405       .  A
C1053      H1060   1.082       .  S
C1054      C1055   1.431       .  A
C1055      C1056   1.399       .  A
C1055     Br1062   1.916   1_545  S
C1056      C1057   1.386       .  A
C1056      H1061   1.085       .  S
C1057      C1058   1.406       .  A
C1058     Br1059   1.910       .  S
C1063      C1064   1.417       .  A
C1063      C1068   1.387       .  A
C1063      H1070   1.073       .  S
C1064      C1065   1.427       .  A
C1065      C1066   1.387   1_545  A
C1065     Br1072   1.860   1_545  S
C1066      C1067   1.373   1_565  A
C1066      H1071   1.085       .  S
C1067      C1068   1.388       .  A
C1068     Br1069   1.906       .  S
C1073      C1074   1.402       .  A
C1073      C1078   1.383       .  A
C1073      H1080   1.082       .  S
C1074      C1075   1.435   1_545  A
C1075      C1076   1.388       .  A
C1075     Br1082   1.928       .  S
C1076      C1077   1.391       .  A
C1076      H1081   1.085       .  S
C1077      C1078   1.404   1_565  A
C1078     Br1079   1.917       .  S
C1083      C1084   1.385       .  A
C1083      C1088   1.398       .  A
C1083      H1090   1.085       .  S
C1084      C1085   1.425       .  A
C1085      C1086   1.354       .  A
C1085     Br1092   1.926       .  S
C1086      C1087   1.370       .  A
C1086      H1091   1.066       .  S
C1087      C1088   1.444       .  A
C1088     Br1089   1.910       .  S
C1093      C1094   1.385       .  A
C1093      C1098   1.358       .  A
C1093      H1100   1.082       .  S
C1094      C1095   1.420   1_545  A
C1095      C1096   1.373       .  A
C1095     Br1102   1.892       .  S
C1096      C1097   1.377       .  A
C1096      H1101   1.085       .  S
C1097      C1098   1.417   1_565  A
C1098     Br1099   1.929       .  S
C1103      C1104   1.409       .  A
C1103      C1108   1.402       .  A
C1103      H1110   1.077       .  S
C1104      C1105   1.397       .  A
C1105      C1106   1.387       .  A
C1105     Br1112   1.915       .  S
C1106      C1107   1.414       .  A
C1106      H1111   1.078       .  S
C1107      C1108   1.405       .  A
C1108     Br1109   1.916       .  S
C1113      C1114   1.418       .  A
C1113      C1118   1.398       .  A
C1113      H1120   1.076       .  S
C1114      C1115   1.413       .  A
C1115      C1116   1.393       .  A
C1115     Br1122   1.878       .  S
C1116      C1117   1.390       .  A
C1116      H1121   1.082       .  S
C1117      C1118   1.397       .  A
C1118     Br1119   1.912       .  S
C1123      C1124   1.382       .  A
C1123      C1128   1.390       .  A
C1123      H1130   1.084       .  S
C1124      C1125   1.399       .  A
C1125      C1126   1.390       .  A
C1125     Br1132   1.918       .  S
C1126      C1127   1.410       .  A
C1126      H1131   1.074       .  S
C1127      C1128   1.433       .  A
C1128     Br1129   1.923       .  S
C1133      C1134   1.393       .  A
C1133      C1138   1.397       .  A
C1133      H1140   1.083       .  S
C1134      C1135   1.412       .  A
C1135      C1136   1.377       .  A
C1135     Br1142   1.933       .  S
C1136      C1137   1.400       .  A
C1136      H1141   1.085       .  S
C1137      C1138   1.435       .  A
C1138     Br1139   1.916       .  S
C1143      C1144   1.391       .  A
C1143      C1148   1.377       .  A
C1143      H1150   1.066       .  S
C1144      C1145   1.395       .  A
C1145      C1146   1.385       .  A
C1145     Br1152   1.919       .  S
C1146      C1147   1.403       .  A
C1146      H1151   1.072       .  S
C1147      C1148   1.389       .  A
C1148     Br1149   1.912       .  S
C1153      C1154   1.418       .  A
C1153      C1158   1.393       .  A
C1153      H1160   1.079       .  S
C1154      C1155   1.418       .  A
C1155      C1156   1.402       .  A
C1155     Br1162   1.914       .  S
C1156      C1157   1.402       .  A
C1156      H1161   1.084       .  S
C1157      C1158   1.388       .  A
C1158     Br1159   1.915       .  S
C1163      C1164   1.388       .  A
C1163      C1168   1.397       .  A
C1163      H1170   1.073       .  S
C1164      C1165   1.423       .  A
C1165      C1166   1.393       .  A
C1165     Br1172   1.892       .  S
C1166      C1167   1.386       .  A
C1166      H1171   1.084       .  S
C1167      C1168   1.414       .  A
C1168     Br1169   1.904       .  S
C1173      C1174   1.407       .  A
C1173      C1178   1.399       .  A
C1173      H1180   1.078       .  S
C1174      C1175   1.436       .  A
C1175      C1176   1.405       .  A
C1175     Br1182   1.910       .  S
C1176      C1177   1.395       .  A
C1176      H1181   1.083       .  S
C1177      C1178   1.398       .  A
C1178     Br1179   1.900       .  S
C1183      C1184   1.383       .  A
C1183      C1188   1.362       .  A
C1183      H1190   1.085       .  S
C1184      C1185   1.423       .  A
C1185      C1186   1.397       .  A
C1185     Br1192   1.913       .  S
C1186      C1187   1.395       .  A
C1186      H1191   1.084       .  S
C1187      C1188   1.428       .  A
C1188     Br1189   1.942   1_554  S
C1193      C1194   1.403       .  A
C1193      C1198   1.405       .  A
C1193      H1200   1.084       .  S
C1194      C1195   1.388       .  A
C1195      C1196   1.386       .  A
C1195     Br1202   1.919       .  S
C1196      C1197   1.429       .  A
C1196      H1201   1.076       .  S
C1197      C1198   1.427       .  A
C1198     Br1199   1.906       .  S
C1203      C1204   1.420       .  A
C1203      C1208   1.395       .  A
C1203      H1210   1.069       .  S
C1204      C1205   1.405       .  A
C1205      C1206   1.396       .  A
C1205     Br1212   1.858       .  S
C1206      C1207   1.389       .  A
C1206      H1211   1.084       .  S
C1207      C1208   1.392       .  A
C1208     Br1209   1.917       .  S
C1213      C1214   1.383       .  A
C1213      C1218   1.373       .  A
C1213      H1220   1.071       .  S
C1214      C1215   1.423       .  A
C1215      C1216   1.392       .  A
C1215     Br1222   1.920       .  S
C1216      C1217   1.398       .  A
C1216      H1221   1.084       .  S
C1217      C1218   1.420       .  A
C1218     Br1219   1.938       .  S
C1223      C1224   1.422       .  A
C1223      C1228   1.400       .  A
C1223      H1230   1.071       .  S
C1224      C1225   1.427       .  A
C1225      C1226   1.402       .  A
C1225     Br1232   1.890       .  S
C1226      C1227   1.388       .  A
C1226      H1231   1.085       .  S
C1227      C1228   1.392       .  A
C1228     Br1229   1.917       .  S
C1233      C1234   1.386       .  A
C1233      C1238   1.381       .  A
C1233      H1240   1.085       .  S
C1234      C1235   1.431       .  A
C1235      C1236   1.364       .  A
C1235     Br1242   1.915       .  S
C1236      C1237   1.374       .  A
C1236      H1241   1.080       .  S
C1237      C1238   1.423       .  A
C1238     Br1239   1.912       .  S
C1243      C1244   1.408       .  A
C1243      C1248   1.382       .  A
C1243      H1250   1.045       .  S
C1244      C1245   1.423       .  A
C1245      C1246   1.412       .  A
C1245     Br1252   1.913       .  S
C1246      C1247   1.406       .  A
C1246      H1251   1.083       .  S
C1247      C1248   1.390       .  A
C1248     Br1249   1.905       .  S
C1253      C1254   1.391       .  A
C1253      C1258   1.392   1_455  A
C1253      H1260   1.084   1_455  S
C1254      C1255   1.394       .  A
C1255      C1256   1.391       .  A
C1255     Br1262   1.912       .  S
C1256      C1257   1.407       .  A
C1256      H1261   1.069       .  S
C1257      C1258   1.420   1_455  A
C1258     Br1259   1.898       .  S
C1263      C1264   1.392       .  A
C1263      C1268   1.373       .  A
C1263      H1270   1.076       .  S
C1264      C1265   1.405       .  A
C1265      C1266   1.403       .  A
C1265     Br1272   1.912       .  S
C1266      C1267   1.415       .  A
C1266      H1271   1.084       .  S
C1267      C1268   1.401       .  A
C1268     Br1269   1.919       .  S
C1273      C1274   1.412       .  A
C1273      C1278   1.386       .  A
C1273      H1280   1.056       .  S
C1274      C1275   1.403       .  A
C1275      C1276   1.399       .  A
C1275     Br1282   1.862       .  S
C1276      C1277   1.401       .  A
C1276      H1281   1.083       .  S
C1277      C1278   1.386       .  A
C1278     Br1279   1.919       .  S
C1283      C1284   1.403   1_455  A
C1283      C1288   1.404       .  A
C1283      H1290   1.081       .  S
C1284      C1285   1.393       .  A
C1285      C1286   1.390       .  A
C1285     Br1292   1.915       .  S
C1286      C1287   1.414       .  A
C1286      H1291   1.068       .  S
C1287      C1288   1.423   1_655  A
C1288     Br1289   1.911       .  S
C1293      C1294   1.409   1_455  A
C1293      C1298   1.410       .  A
C1293      H1300   1.084       .  S
C1294      C1295   1.384       .  A
C1295      C1296   1.390       .  A
C1295     Br1302   1.921       .  S
C1296      C1297   1.410       .  A
C1296      H1301   1.056       .  S
C1297      C1298   1.424   1_655  A
C1298     Br1299   1.917       .  S
C1303      C1304   1.381       .  A
C1303      C1308   1.378       .  A
C1303      H1310   1.083       .  S
C1304      C1305   1.442       .  A
C1305      C1306   1.384       .  A
C1305     Br1312   1.908       .  S
C1306      C1307   1.379       .  A
C1306      H1311   1.085       .  S
C1307      C1308   1.425       .  A
C1308     Br1309   1.932       .  S
C1313      C1314   1.402       .  A
C1313      C1318   1.412       .  A
C1313      H1320   1.084       .  S
C1314      C1315   1.400       .  A
C1315      C1316   1.397       .  A
C1315     Br1322   1.919       .  S
C1316      C1317   1.410       .  A
C1316      H1321   1.076       .  S
C1317      C1318   1.435       .  A
C1318     Br1319   1.915       .  S
C1323      C1324   1.421       .  A
C1323      C1328   1.399       .  A
C1323      H1330   1.060       .  S
C1324      C1325   1.417       .  A
C1325      C1326   1.402       .  A
C1325     Br1332   1.879       .  S
C1326      C1327   1.393       .  A
C1326      H1331   1.082       .  S
C1327      C1328   1.397       .  A
C1328     Br1329   1.912       .  S
C1333      C1334   1.412       .  A
C1333      C1338   1.401       .  A
C1333      H1340   1.064       .  S
C1334      C1335   1.422       .  A
C1335      C1336   1.399       .  A
C1335     Br1342   1.870       .  S
C1336      C1337   1.397       .  A
C1336      H1341   1.085       .  S
C1337      C1338   1.395       .  A
C1338     Br1339   1.904       .  S
C1343      C1344   1.422       .  A
C1343      C1348   1.407       .  A
C1343      H1350   1.076       .  S
C1344      C1345   1.382       .  A
C1345      C1346   1.363       .  A
C1345     Br1352   1.922       .  S
C1346      C1347   1.397       .  A
C1346      H1351   1.038       .  S
C1347      C1348   1.397       .  A
C1348     Br1349   1.913       .  S
C1353      C1354   1.407       .  A
C1353      C1358   1.386       .  A
C1353      H1360   1.055       .  S
C1354      C1355   1.428       .  A
C1355      C1356   1.395       .  A
C1355     Br1362   1.907       .  S
C1356      C1357   1.396       .  A
C1356      H1361   1.083       .  S
C1357      C1358   1.391       .  A
C1358     Br1359   1.919       .  S
C1363      C1364   1.401       .  A
C1363      C1368   1.381       .  A
C1363      H1370   1.055       .  S
C1364      C1365   1.399       .  A
C1365      C1366   1.396       .  A
C1365     Br1372   1.922   1_556  S
C1366      C1367   1.417       .  A
C1366      H1371   1.061   1_556  S
C1367      C1368   1.388       .  A
C1368     Br1369   1.911       .  S
C1373      C1374   1.396       .  A
C1373      C1378   1.379       .  A
C1373      H1380   1.084       .  S
C1374      C1375   1.419       .  A
C1375      C1376   1.341       .  A
C1375     Br1382   1.949       .  S
C1376      C1377   1.385       .  A
C1376      H1381   1.077       .  S
C1377      C1378   1.406       .  A
C1378     Br1379   1.911       .  S
C1383      C1384   1.402       .  A
C1383      C1388   1.373       .  A
C1383      H1390   1.035       .  S
C1384      C1385   1.413       .  A
C1385      C1386   1.386       .  A
C1385     Br1392   1.932   1_556  S
C1386      C1387   1.398       .  A
C1386      H1391   1.060       .  S
C1387      C1388   1.389       .  A
C1388     Br1389   1.921       .  S
C1393      C1394   1.382       .  A
C1393      C1398   1.361       .  A
C1393      H1400   1.081       .  S
C1394      C1395   1.402       .  A
C1395      C1396   1.375       .  A
C1395     Br1402   1.916       .  S
C1396      C1397   1.393       .  A
C1396      H1401   1.084       .  S
C1397      C1398   1.426       .  A
C1398     Br1399   1.930       .  S
C1403      C1404   1.388       .  A
C1403      C1408   1.394       .  A
C1403      H1410   1.061       .  S
C1404      C1405   1.429       .  A
C1405      C1406   1.396       .  A
C1405     Br1412   1.916       .  S
C1406      C1407   1.388       .  A
C1406      H1411   1.083       .  S
C1407      C1408   1.408       .  A
C1408     Br1409   1.904       .  S
C1413      C1414   1.385       .  A
C1413      C1418   1.372       .  A
C1413      H1420   1.077       .  S
C1414      C1415   1.423       .  A
C1415      C1416   1.353       .  A
C1415     Br1422   1.926       .  S
C1416      C1417   1.379       .  A
C1416      H1421   1.085       .  S
C1417      C1418   1.427       .  A
C1418     Br1419   1.944       .  S
C1423      C1424   1.399       .  A
C1423      C1428   1.406       .  A
C1423      H1430   1.084       .  S
C1424      C1425   1.392       .  A
C1425      C1426   1.386       .  A
C1425     Br1432   1.912       .  S
C1426      C1427   1.404       .  A
C1426      H1431   1.064       .  S
C1427      C1428   1.437       .  A
C1428     Br1429   1.911       .  S
C1433      C1434   1.399       .  A
C1433      C1438   1.392       .  A
C1433      H1440   1.076       .  S
C1434      C1435   1.408       .  A
C1435      C1436   1.401       .  A
C1435     Br1442   1.907       .  S
C1436      C1437   1.407       .  A
C1436      H1441   1.074       .  S
C1437      C1438   1.387       .  A
C1438     Br1439   1.920       .  S
C1443      C1444   1.389       .  A
C1443      C1448   1.408       .  A
C1443      H1450   1.084       .  S
C1444      C1445   1.401       .  A
C1445      C1446   1.405       .  A
C1445     Br1452   1.909       .  S
C1446      C1447   1.435       .  A
C1446      H1451   1.079       .  S
C1447      C1448   1.440       .  A
C1448     Br1449   1.888       .  S
C1453      C1454   1.410       .  A
C1453      C1458   1.402       .  A
C1453      H1460   1.066       .  S
C1454      C1455   1.392       .  A
C1455      C1456   1.397       .  A
C1455     Br1462   1.911       .  S
C1456      C1457   1.400       .  A
C1456      H1461   1.070       .  S
C1457      C1458   1.402       .  A
C1458     Br1459   1.913       .  S
C1463      C1464   1.397       .  A
C1463      C1468   1.390       .  A
C1463      H1470   1.076       .  S
C1464      C1465   1.418       .  A
C1465      C1466   1.379       .  A
C1465     Br1472   1.917       .  S
C1466      C1467   1.392       .  A
C1466      H1471   1.084       .  S
C1467      C1468   1.415       .  A
C1468     Br1469   1.911       .  S
C1473      C1474   1.393       .  A
C1473      C1478   1.365       .  A
C1473      H1480   1.073       .  S
C1474      C1475   1.397       .  A
C1475      C1476   1.400       .  A
C1475     Br1482   1.916       .  S
C1476      C1477   1.419       .  A
C1476      H1481   1.076       .  S
C1477      C1478   1.394       .  A
C1478     Br1479   1.902       .  S
C1483      C1484   1.409       .  A
C1483      C1488   1.393       .  A
C1483      H1490   1.078       .  S
C1484      C1485   1.387       .  A
C1485      C1486   1.387       .  A
C1485     Br1492   1.914       .  S
C1486      C1487   1.402       .  A
C1486      H1491   1.084       .  S
C1487      C1488   1.405       .  A
C1488     Br1489   1.913       .  S
C1493      C1494   1.408       .  A
C1493      C1498   1.371   1_455  A
C1493      H1500   1.082   1_455  S
C1494      C1495   1.405       .  A
C1495      C1496   1.400       .  A
C1495     Br1502   1.917       .  S
C1496      C1497   1.409       .  A
C1496      H1501   1.082       .  S
C1497      C1498   1.399   1_455  A
C1498     Br1499   1.909       .  S
C1503      C1504   1.389       .  A
C1503      C1508   1.390       .  A
C1503      H1510   1.085       .  S
C1504      C1505   1.440       .  A
C1505      C1506   1.372       .  A
C1505     Br1512   1.946       .  S
C1506      C1507   1.378       .  A
C1506      H1511   1.072       .  S
C1507      C1508   1.428       .  A
C1508     Br1509   1.907       .  S
C1513      C1514   1.400       .  A
C1513      C1518   1.389       .  A
C1513      H1520   1.079       .  S
C1514      C1515   1.384       .  A
C1515      C1516   1.387       .  A
C1515     Br1522   1.915       .  S
C1516      C1517   1.416       .  A
C1516      H1521   1.076       .  S
C1517      C1518   1.409       .  A
C1518     Br1519   1.915       .  S
C1523      C1524   1.409       .  A
C1523      C1528   1.399       .  A
C1523      H1530   1.074       .  S
C1524      C1525   1.395       .  A
C1525      C1526   1.403       .  A
C1525     Br1532   1.917       .  S
C1526      C1527   1.410       .  A
C1526      H1531   1.068       .  S
C1527      C1528   1.406       .  A
C1528     Br1529   1.911       .  S
C1533      C1534   1.426       .  A
C1533      C1538   1.379       .  A
C1533      H1540   1.081       .  S
C1534      C1535   1.422       .  A
C1535      C1536   1.396       .  A
C1535     Br1542   1.922       .  S
C1536      C1537   1.398       .  A
C1536      H1541   1.084       .  S
C1537      C1538   1.378       .  A
C1538     Br1539   1.913       .  S
C1543      C1544   1.386       .  A
C1543      C1548   1.366       .  A
C1543      H1550   1.081       .  S
C1544      C1545   1.422   1_565  A
C1545      C1546   1.395   1_545  A
C1545     Br1552   1.921       .  S
C1546      C1547   1.394       .  A
C1546      H1551   1.084   1_565  S
C1547      C1548   1.422       .  A
C1548     Br1549   1.933   1_556  S
C1553      C1554   1.418       .  A
C1553      C1558   1.387       .  A
C1553      H1560   1.083       .  S
C1554      C1555   1.412       .  A
C1555      C1556   1.388       .  A
C1555     Br1562   1.931       .  S
C1556      C1557   1.400       .  A
C1556      H1561   1.073       .  S
C1557      C1558   1.385       .  A
C1558     Br1559   1.911       .  S
C1563      C1564   1.390   1_455  A
C1563      C1568   1.361       .  A
C1563      H1570   1.025       .  S
C1564      C1565   1.388       .  A
C1565      C1566   1.401       .  A
C1565     Br1572   1.915       .  S
C1566      C1567   1.430       .  A
C1566      H1571   1.058       .  S
C1567      C1568   1.371   1_655  A
C1568     Br1569   1.918       .  S
C1573      C1574   1.389       .  A
C1573      C1578   1.378       .  A
C1573      H1580   1.083       .  S
C1574      C1575   1.415       .  A
C1575      C1576   1.405       .  A
C1575     Br1582   1.884       .  S
C1576      C1577   1.396       .  A
C1576      H1581   1.079       .  S
C1577      C1578   1.413       .  A
C1578     Br1579   1.927       .  S
C1583      C1584   1.389       .  A
C1583      C1588   1.369       .  A
C1583      H1590   1.028       .  S
C1584      C1585   1.395       .  A
C1585      C1586   1.417       .  A
C1585     Br1592   1.924       .  S
C1586      C1587   1.437       .  A
C1586      H1591   1.070       .  S
C1587      C1588   1.382       .  A
C1588     Br1589   1.914       .  S
C1593      C1594   1.384       .  A
C1593      C1598   1.345       .  A
C1593      H1600   1.077       .  S
C1594      C1595   1.407   1_545  A
C1595      C1596   1.383   1_565  A
C1595     Br1602   1.913       .  S
C1596      C1597   1.396       .  A
C1596      H1601   1.083   1_545  S
C1597      C1598   1.422       .  A
C1598     Br1599   1.944       .  S
C1603      C1604   1.397       .  A
C1603      C1608   1.389   1_545  A
C1603      H1610   1.086       .  S
C1604      C1605   1.399   1_545  A
C1605      C1606   1.393       .  A
C1605     Br1612   1.914   1_455  S
C1606      C1607   1.405       .  A
C1606      H1611   1.076       .  S
C1607      C1608   1.395       .  A
C1608     Br1609   1.912       .  S
C1613      C1614   1.384       .  A
C1613      C1618   1.369       .  A
C1613      H1620   1.084   1_655  S
C1614      C1615   1.409       .  A
C1615      C1616   1.392       .  A
C1615     Br1622   1.903       .  S
C1616      C1617   1.394       .  A
C1616      H1621   1.083       .  S
C1617      C1618   1.428       .  A
C1618     Br1619   1.930   1_655  S
C1623      C1624   1.399       .  A
C1623      C1628   1.400       .  A
C1623      H1630   1.084       .  S
C1624      C1625   1.380       .  A
C1625      C1626   1.387       .  A
C1625     Br1632   1.911   1_455  S
C1626      C1627   1.415       .  A
C1626      H1631   1.065   1_455  S
C1627      C1628   1.428       .  A
C1628     Br1629   1.912       .  S
C1633      C1634   1.401       .  A
C1633      C1638   1.396       .  A
C1633      H1640   1.084       .  S
C1634      C1635   1.389       .  A
C1635      C1636   1.390       .  A
C1635     Br1642   1.917       .  S
C1636      C1637   1.413       .  A
C1636      H1641   1.058       .  S
C1637      C1638   1.404       .  A
C1638     Br1639   1.885       .  S
C1643      C1644   1.412       .  A
C1643      C1648   1.359       .  A
C1643      H1650   1.075       .  S
C1644      C1645   1.383       .  A
C1645      C1646   1.377       .  A
C1645     Br1652   1.921       .  S
C1646      C1647   1.419       .  A
C1646      H1651   1.074       .  S
C1647      C1648   1.380       .  A
C1648     Br1649   1.924       .  S
C1653      C1654   1.389       .  A
C1653      C1658   1.359       .  A
C1653      H1660   1.055   1_565  S
C1654      C1655   1.378       .  A
C1655      C1656   1.376       .  A
C1655     Br1662   1.917   1_655  S
C1656      C1657   1.418       .  A
C1656      H1661   1.071   1_655  S
C1657      C1658   1.394       .  A
C1658     Br1659   1.924   1_565  S
C1663      C1664   1.394       .  A
C1663      C1668   1.401       .  A
C1663      H1670   1.085       .  S
C1664      C1665   1.394       .  A
C1665      C1666   1.398       .  A
C1665     Br1672   1.909       .  S
C1666      C1667   1.404       .  A
C1666      H1671   1.042       .  S
C1667      C1668   1.429       .  A
C1668     Br1669   1.891       .  S
C1673      C1674   1.399       .  A
C1673      C1678   1.405       .  A
C1673      H1680   1.082       .  S
C1674      C1675   1.389       .  A
C1675      C1676   1.390       .  A
C1675     Br1682   1.912   1_556  S
C1676      C1677   1.411       .  A
C1676      H1681   1.069   1_655  S
C1677      C1678   1.426       .  A
C1678     Br1679   1.901       .  S
C1683      C1684   1.410       .  A
C1683      C1688   1.398       .  A
C1683      H1690   1.082       .  S
C1684      C1685   1.429       .  A
C1685      C1686   1.395       .  A
C1685     Br1692   1.931       .  S
C1686      C1687   1.397       .  A
C1686      H1691   1.085       .  S
C1687      C1688   1.400       .  A
C1688     Br1689   1.910       .  S
C1693      C1694   1.418       .  A
C1693      C1698   1.403       .  A
C1693      H1700   1.062       .  S
C1694      C1695   1.446   1_545  A
C1695      C1696   1.410       .  A
C1695     Br1702   1.904   1_556  S
C1696      C1697   1.396   1_565  A
C1696      H1701   1.083       .  S
C1697      C1698   1.392       .  A
C1698     Br1699   1.909   1_545  S
C1703      C1704   1.412   1_655  A
C1703      C1708   1.405   1_655  A
C1703      H1710   1.078       .  S
C1704      C1705   1.405       .  A
C1705      C1706   1.358       .  A
C1705     Br1712   1.918       .  S
C1706      C1707   1.406       .  A
C1706      H1711   1.082       .  S
C1707      C1708   1.402       .  A
C1708     Br1709   1.913   1_455  S
C1713      C1714   1.377   1_454  A
C1713      C1718   1.366       .  A
C1713      H1720   1.082       .  S
C1714      C1715   1.412       .  A
C1715      C1716   1.402       .  A
C1715     Br1722   1.910       .  S
C1716      C1717   1.404   1_656  A
C1716      H1721   1.083       .  S
C1717      C1718   1.438       .  A
C1718     Br1719   1.927       .  S
C1723      C1724   1.409       .  A
C1723      C1728   1.387   1_556  A
C1723      H1730   1.065   1_556  S
C1724      C1725   1.398   1_545  A
C1725      C1726   1.382       .  A
C1725     Br1732   1.927       .  S
C1726      C1727   1.419       .  A
C1726      H1731   1.073       .  S
C1727      C1728   1.394   1_566  A
C1728     Br1729   1.920       .  S
C1733      C1734   1.410   1_565  A
C1733      C1738   1.402       .  A
C1733      H1740   1.082       .  S
C1734      C1735   1.393       .  A
C1735      C1736   1.384       .  A
C1735     Br1742   1.925       .  S
C1736      C1737   1.405       .  A
C1736      H1741   1.056       .  S
C1737      C1738   1.405   1_545  A
C1738     Br1739   1.914       .  S
C1743      C1744   1.416   1_455  A
C1743      C1748   1.398       .  A
C1743      H1750   1.070       .  S
C1744      C1745   1.399   1_554  A
C1745      C1746   1.405       .  A
C1745     Br1752   1.900   1_556  S
C1746      C1747   1.403   1_655  A
C1746      H1751   1.082       .  S
C1747      C1748   1.396   1_556  A
C1748     Br1749   1.913       .  S
