geometry optimzed in LAMMPS
_audit_creation_date              2020-11-30 
_audit_creation_method            'lammps2cif' 
_symmetry_space_group_name_H-M    'P1' 
_symmetry_Int_Tables_number       1 
_symmetry_cell_setting            triclinic 
loop_ 
_symmetry_equiv_pos_as_xyz 
  x,y,z 
_cell_length_a                    38.52705073 
_cell_length_b                    31.474971751806468 
_cell_length_c                    35.94103106339846 
_cell_angle_alpha                 90.0780966396837 
_cell_angle_beta                  103.56691856895146 
_cell_angle_gamma                 89.80070238050244 
loop_ 
_atom_site_label 
_atom_site_type_symbol 
_atom_site_fract_x 
_atom_site_fract_y 
_atom_site_fract_z 
_atom_site_charge 
O1          O  0.45993264  0.03628746  0.98261021    -0.74200
O2          O  0.50823343  0.93026155  0.01292020    -0.74300
O3          O  0.49127184  0.00014236  0.04983011    -0.74300
O4          O  0.47632904  0.96699397  0.94491117    -0.74400
O5          O  0.02822787  0.99561527  0.94203046    -0.74300
O6          O  0.04349295  0.02806659  0.04792937    -0.74300
O7          O  0.06003541  0.95961758  0.00957794    -0.74300
O8          O  0.01195134  0.06569516  0.98017785    -0.74300
Ni9        Ni  0.48214740  0.98229479  0.99759902     1.25400
Ni10       Ni  0.03772602  0.01341674  0.99474894     1.25400
C11         C  0.47820802  0.06860881  0.97716647     0.87900
C12         C  0.04207679  0.92762639  0.01630891     0.87900
C13         C  0.01969734  0.01971684  0.06652636     0.87900
C14         C  0.49992864  0.97507377  0.92609704     0.88100
C15         C  0.34182834  0.34167671  0.90475669     0.03300
C16         C  0.33158739  0.35095763  0.86552371    -0.12800
C17         C  0.31122912  0.38737345  0.85271627     0.00800
C18         C  0.30040540  0.41395447  0.87925833    -0.11400
C19         C  0.31095031  0.40536726  0.91868046     0.03300
C20         C  0.33211258  0.36933945  0.93126431    -0.10800
H21         H  0.33964356  0.33011555  0.84508888     0.08900
H22         H  0.28406940  0.44170550  0.86920166     0.06400
H23         H  0.34062056  0.36253657  0.96155705     0.06300
C24         C  0.18218710  0.66158367  0.10855192     0.03300
C25         C  0.19973279  0.63922996  0.08445656    -0.12800
C26         C  0.21593941  0.59970257  0.09585054     0.00800
C27         C  0.21577669  0.58390462  0.13234626    -0.11400
C28         C  0.20016458  0.60739859  0.15729575     0.03300
C29         C  0.18295921  0.64588304  0.14514864    -0.10800
H30         H  0.19965170  0.65181972  0.05650297     0.08900
H31         H  0.22816503  0.55346356  0.14157493     0.06400
H32         H  0.17012838  0.66361654  0.16418496     0.06900
O33         O  0.22448652  0.49847865  0.55883821    -0.74200
O34         O  0.20748530  0.53304099  0.45324875    -0.74300
O35         O  0.18753862  0.46685880  0.49099199    -0.74300
O36         O  0.24395335  0.56666421  0.52105229    -0.74400
O37         O  0.29286581  0.53213277  0.51468218    -0.74300
O38         O  0.23639066  0.43144199  0.48562881    -0.74300
O39         O  0.25650418  0.49848865  0.44815134    -0.74300
O40         O  0.27373465  0.46526577  0.55311842    -0.74300
Ni41       Ni  0.21421000  0.51763084  0.50635348     1.25400
Ni42       Ni  0.26657365  0.48051602  0.50027740     1.25400
C43         C  0.25188694  0.47555324  0.57350842     0.87900
C44         C  0.22915608  0.52099551  0.43307136     0.87900
C45         C  0.20258244  0.43292990  0.48297726     0.87900
C46         C  0.27743528  0.56616571  0.52212586     0.88100
C47         C  0.06027979  0.16876471  0.39060552     0.03300
C48         C  0.04689300  0.14305539  0.41595725    -0.12800
C49         C  0.03089967  0.10374777  0.40380671     0.00800
C50         C  0.02822083  0.09045715  0.36589290    -0.11400
C51         C  0.04094185  0.11621899  0.34019592     0.03300
C52         C  0.05674357  0.15541582  0.35259352    -0.10800
H53         H  0.04956011  0.15321221  0.44527265     0.08900
H54         H  0.01636890  0.05988491  0.35641023     0.06400
H55         H  0.06702980  0.17506346  0.33292408     0.06300
C56         C  0.41618544  0.83716647  0.59658410     0.03300
C57         C  0.42571139  0.86512706  0.57021264    -0.12800
C58         C  0.44728719  0.90072194  0.58295109     0.00800
C59         C  0.45872214  0.90827860  0.62250151    -0.11400
C60         C  0.44752781  0.88208340  0.64890450     0.03300
C61         C  0.42658010  0.84629881  0.63589304    -0.10800
H62         H  0.41664725  0.85889399  0.53989086     0.08900
H63         H  0.47547738  0.93552621  0.63278281     0.06400
H64         H  0.41832954  0.82563508  0.65630233     0.06300
C65         C  0.45751270  0.93065050  0.55518825     0.01500
C66         C  0.47604942  0.91595275  0.52798624     0.04400
C67         C  0.98620822  0.94472693  0.50245612    -0.11700
C68         C  0.48007612  0.98866921  0.50544680     0.23600
C69         C  0.46210493  0.00346763  0.53287900    -0.12300
C70         C  0.44961485  0.97451322  0.55655369     0.05100
C71         C  0.99291801  0.01930509  0.48005529     0.27500
C72         C  0.02950522  0.02955481  0.48711032    -0.13000
C73         C  0.04197032  0.05707681  0.46223629     0.05600
C74         C  0.01772132  0.07584278  0.43089042    -0.08900
C75         C  0.98091945  0.06692832  0.42479673     0.06400
C76         C  0.46866224  0.03810424  0.44880314    -0.13300
Br77       Br  0.45542863  0.06372417  0.53868655    -0.05400
Br78       Br  0.98962012  0.85690782  0.52674950     0.00200
Br79       Br  0.09253695  0.06753397  0.47031658     0.00700
Br80       Br  0.41864325  0.02376380  0.43854546    -0.03700
Br81       Br  0.41996109  0.99520579  0.58926517     0.00800
Br82       Br  0.00872086  0.92406143  0.46324960    -0.03000
Br83       Br  0.06253696  0.00584336  0.53108196    -0.03900
Br84       Br  0.44706613  0.09544349  0.38435191     0.00100
C85         C  0.29843524  0.60567138  0.53180672     0.01500
C86         C  0.30199529  0.62462341  0.56806498     0.04400
C87         C  0.32096155  0.66286712  0.57698150    -0.11700
C88         C  0.33719218  0.68201637  0.55000206     0.23600
C89         C  0.33404304  0.66295423  0.51384010    -0.12300
C90         C  0.31438739  0.62509524  0.50459009     0.05100
C91         C  0.35780684  0.72198066  0.56008177     0.27500
C92         C  0.34066701  0.76172805  0.55230569    -0.13000
C93         C  0.35977073  0.79951273  0.56374867     0.05600
C94         C  0.39609732  0.79767564  0.58321079    -0.08900
C95         C  0.41334606  0.75786899  0.59040378     0.06400
C96         C  0.39420617  0.72015817  0.57903892    -0.13300
Br97       Br  0.35668822  0.68894488  0.47712713    -0.05400
Br98       Br  0.28235114  0.59721906  0.60630925     0.00200
Br99       Br  0.33586474  0.85370706  0.55388287     0.00700
Br100      Br  0.41755362  0.66574889  0.59003116    -0.03700
Br101      Br  0.30793835  0.60096011  0.45403872     0.00800
Br102      Br  0.32484037  0.68928517  0.62627664    -0.03000
Br103      Br  0.29069076  0.76407831  0.52690813    -0.03900
Br104      Br  0.46352591  0.75502523  0.61508319     0.00100
C105        C  0.07985155  0.20849461  0.40442126     0.01500
C106        C  0.06153181  0.24432242  0.41392294     0.04400
C107        C  0.08043009  0.28173004  0.42739673    -0.11700
C108        C  0.11769497  0.28347739  0.43144919     0.23600
C109        C  0.13595578  0.24780183  0.42179285    -0.12300
C110        C  0.11714617  0.21044226  0.40833946     0.05100
C111        C  0.13783551  0.32298191  0.44508284     0.27500
C112        C  0.14224212  0.35422611  0.41855357    -0.13000
C113        C  0.16288317  0.39058695  0.43111195     0.05600
C114        C  0.18024710  0.39520747  0.47005563    -0.08900
C115        C  0.17479819  0.36475156  0.49678244     0.06400
C116        C  0.15352076  0.32876504  0.48434370    -0.13300
Br117      Br  0.18691422  0.25038987  0.42699770    -0.05400
Br118      Br  0.01039941  0.24259149  0.40728657     0.00200
Br119      Br  0.16615607  0.43479198  0.39512534     0.00700
Br120      Br  0.14557958  0.28738315  0.52093670    -0.03700
Br121      Br  0.14278500  0.16153822  0.39618834     0.00800
Br122      Br  0.05543540  0.33087172  0.44003822    -0.03000
Br123      Br  0.11999313  0.34693609  0.36495200    -0.03900
Br124      Br  0.19558399  0.37319690  0.55052275     0.00100
C125        C  0.22275821  0.53278062  0.39175581     0.01500
C126        C  0.20669010  0.57228895  0.37834852     0.04400
C127        C  0.20157200  0.58343524  0.33947711    -0.11700
C128        C  0.21260047  0.55572731  0.31375928     0.23600
C129        C  0.22816123  0.51638754  0.32653145    -0.12300
C130        C  0.23334561  0.50478010  0.36524581     0.05100
C131        C  0.20920999  0.56867660  0.27343249     0.27500
C132        C  0.17901246  0.55670978  0.24494588    -0.13000
C133        C  0.17615545  0.56882115  0.20666491     0.05600
C134        C  0.20345458  0.59295620  0.19695714    -0.08900
C135        C  0.23371673  0.60466307  0.22538821     0.06400
C136        C  0.23657332  0.59261580  0.26359838    -0.13300
Br137      Br  0.24256754  0.47853241  0.29043724    -0.05400
Br138      Br  0.19356059  0.61326037  0.41279088     0.00200
Br139      Br  0.13502857  0.55245864  0.16745673     0.00700
Br140      Br  0.27778450  0.60921344  0.30267014    -0.03700
Br141      Br  0.25432326  0.44959936  0.38034692     0.00800
Br142      Br  0.17992108  0.63720269  0.32102837    -0.03000
Br143      Br  0.14160643  0.52408469  0.25866517    -0.03900
Br144      Br  0.27105570  0.63768999  0.21187791     0.00100
C145        C  0.29942362  0.43390784  0.94657294     0.01500
C146        C  0.30921142  0.47727262  0.94891426     0.04400
C147        C  0.29625171  0.50488466  0.97341067    -0.11700
C148        C  0.27449010  0.48915504  0.99669463     0.23600
C149        C  0.26562787  0.44571016  0.99541968    -0.12300
C150        C  0.27762666  0.41823773  0.97009861     0.05100
C151        C  0.25998006  0.51860987  0.02163765     0.27500
C152        C  0.28135315  0.53145314  0.05719623    -0.13000
C153        C  0.26768838  0.55999194  0.08042269     0.05600
C154        C  0.23173670  0.57378220  0.06928303    -0.08900
C155        C  0.21035357  0.56063119  0.03356491     0.06400
C156        C  0.22478621  0.53401274  0.00950120    -0.13300
Br157      Br  0.23639690  0.42416280  0.02802743    -0.05400
Br158      Br  0.34132084  0.49896258  0.91959486     0.00200
Br159      Br  0.29898749  0.58153331  0.12656212     0.00700
Br160      Br  0.19630355  0.51818231  0.95976643    -0.03700
Br161      Br  0.26231489  0.35971673  0.96639257     0.00800
Br162      Br  0.30748052  0.56468248  0.97454851    -0.03000
Br163      Br  0.32918395  0.50913575  0.07425115    -0.03900
Br164      Br  0.16058325  0.57663977  0.01801970     0.00100
C165        C  0.25871195  0.46046082  0.61438983     0.01500
C166        C  0.24457692  0.48268126  0.64216195     0.04400
C167        C  0.25283762  0.46934676  0.68074191    -0.11700
C168        C  0.27487966  0.43381190  0.69230835     0.23600
C169        C  0.28813660  0.41076487  0.66511983    -0.12300
C170        C  0.27999036  0.42350843  0.62640042     0.05100
C171        C  0.28448090  0.42100220  0.73334999     0.27500
C172        C  0.31613033  0.43635392  0.75769967    -0.13000
C173        C  0.32496048  0.42503250  0.79668089     0.05600
C174        C  0.30212253  0.39846378  0.81154765    -0.08900
C175        C  0.27054473  0.38298463  0.78725973     0.06400
C176        C  0.26177845  0.39411918  0.74819102    -0.13300
Br177      Br  0.31767725  0.36133135  0.68152369    -0.05400
Br178      Br  0.21414301  0.53202092  0.62923468     0.00200
Br179      Br  0.36831989  0.44598266  0.82992972     0.00700
Br180      Br  0.21860354  0.37287548  0.71490263    -0.03700
Br181      Br  0.29704706  0.38756852  0.59063059     0.00800
Br182      Br  0.23436066  0.50003538  0.71860492    -0.03000
Br183      Br  0.34714755  0.47327334  0.73754881    -0.03900
Br184      Br  0.23926250  0.34688886  0.80782691     0.00100
C185        C  0.02460971  0.03310741  0.10762315     0.01500
C186        C  0.50581624  0.01213717  0.13212264     0.04400
C187        C  0.00988103  0.02545446  0.17034943    -0.11700
C188        C  0.03199124  0.05996849  0.18471126     0.23600
C189        C  0.05076432  0.08092983  0.16104159    -0.12300
C190        C  0.04723315  0.06783358  0.12276265     0.05100
C191        C  0.03463429  0.07485779  0.22460432     0.27500
C192        C  0.00762812  0.10103941  0.23292371    -0.13000
C193        C  0.00937370  0.11392387  0.27085768     0.05600
C194        C  0.03860877  0.10169399  0.30046427    -0.08900
C195        C  0.06571088  0.07572917  0.29213756     0.06400
C196        C  0.06346952  0.06182781  0.25437676    -0.13300
Br197      Br  0.08086748  0.12854290  0.18136465    -0.05400
Br198      Br  0.47416143  0.96463362  0.11520961     0.00200
Br199      Br  0.97140940  0.14763312  0.28256648     0.00700
Br200      Br  0.09938443  0.02414992  0.24337612    -0.03700
Br201      Br  0.07216383  0.10050433  0.09161497     0.00800
Br202      Br  0.48503215  0.99643112  0.20378556    -0.03000
Br203      Br  0.46814112  0.11893464  0.19221249    -0.03900
Br204      Br  0.10590636  0.05931072  0.33258442     0.00100
C205        C  0.45590805  0.89385509  0.68994341     0.01500
C206        C  0.43105525  0.91783027  0.70447615     0.04400
C207        C  0.43924000  0.93056902  0.74308615    -0.11700
C208        C  0.47201899  0.91866962  0.76755791     0.23600
C209        C  0.49672890  0.89425011  0.75317382    -0.12300
C210        C  0.48888898  0.88237445  0.71427438     0.05100
C211        C  0.48049177  0.93225623  0.80833157     0.27500
C212        C  0.49910947  0.97031183  0.81932873    -0.13000
C213        C  0.00660468  0.98383061  0.85781130     0.05600
C214        C  0.49427039  0.95987989  0.88562089    -0.08900
C215        C  0.47598043  0.92106407  0.87422287     0.06400
C216        C  0.46931740  0.90748278  0.83582665    -0.13300
Br217      Br  0.04120379  0.87714792  0.78695607    -0.05400
Br218      Br  0.38597334  0.93382226  0.67117779     0.00200
Br219      Br  0.03328788  0.03577362  0.87095573     0.00700
Br220      Br  0.44462490  0.85469690  0.82036106    -0.03700
Br221      Br  0.52334289  0.85082349  0.69406905     0.00800
Br222      Br  0.40584929  0.96491186  0.76254475    -0.03000
Br223      Br  0.01348933  0.00440506  0.78090662    -0.03900
Br224      Br  0.46128431  0.88424459  0.91077360     0.00100
C225        C  0.06107252  0.88742936  0.02904125     0.01500
C226        C  0.06941952  0.87662522  0.06817595     0.04400
C227        C  0.08844328  0.83906064  0.08077266    -0.11700
C228        C  0.09982169  0.81246670  0.05437298     0.23600
C229        C  0.09155336  0.82319406  0.01520302    -0.12300
C230        C  0.07241591  0.86077964  0.00258150     0.05100
C231        C  0.12107003  0.77367775  0.06801834     0.27500
C232        C  0.15844815  0.77637025  0.08164097    -0.13000
C233        C  0.17857745  0.73964225  0.09471316     0.05600
C234        C  0.16131957  0.70028821  0.09474087    -0.08900
C235        C  0.12388346  0.69774451  0.08186218     0.06400
C236        C  0.10384637  0.73428026  0.06810499    -0.13300
Br237      Br  0.10660237  0.78624590  0.97904751    -0.05400
Br238      Br  0.05667779  0.91457682  0.10490708     0.00200
Br239      Br  0.22966861  0.74319327  0.11350423     0.00700
Br240      Br  0.05276245  0.73056644  0.04935954    -0.03700
Br241      Br  0.06222392  0.87611274  0.94918946     0.00800
Br242      Br  0.09919702  0.82394265  0.13428472    -0.03000
Br243      Br  0.18188528  0.83055555  0.08272679    -0.03900
Br244      Br  0.10007298  0.64410317  0.08319829     0.00100
C245        C  0.36288862  0.30290022  0.91803087     0.01500
C246        C  0.34539214  0.26458457  0.92225736     0.04400
C247        C  0.36539018  0.22725707  0.93327189    -0.11700
C248        C  0.40297228  0.22821598  0.94044064     0.23600
C249        C  0.42048046  0.26682316  0.93726147    -0.12300
C250        C  0.40044591  0.30404312  0.92581329     0.05100
C251        C  0.42385928  0.18828193  0.95011847     0.27500
C252        C  0.43603250  0.17563626  0.98857597    -0.13000
C253        C  0.45384636  0.13644507  0.99742738     0.05600
C254        C  0.46006743  0.11005782  0.96787237    -0.08900
C255        C  0.44838683  0.12310339  0.92948595     0.06400
C256        C  0.43047225  0.16218800  0.92062178    -0.13300
Br257      Br  0.47189784  0.26845968  0.94845895    -0.05400
Br258      Br  0.29399107  0.26328371  0.91252143     0.00200
Br259      Br  0.96918169  0.11861726  0.05002976     0.00700
Br260      Br  0.41475329  0.18014405  0.86802793    -0.03700
Br261      Br  0.42424277  0.35665773  0.92028191     0.00800
Br262      Br  0.34142801  0.17455924  0.93819133    -0.03000
Br263      Br  0.42826972  0.21225796  0.02895764    -0.03900
Br264      Br  0.45568475  0.08666140  0.88895763     0.00100
O265        O  0.95993272  0.03628749  0.98261034    -0.74200
O266        O  0.00823348  0.93026154  0.01292020    -0.74300
O267        O  0.99127195  0.00014231  0.04983019    -0.74300
O268        O  0.97632902  0.96699401  0.94491120    -0.74400
O269        O  0.52822787  0.99561526  0.94203044    -0.74300
O270        O  0.54349288  0.02806654  0.04792934    -0.74300
O271        O  0.56003536  0.95961755  0.00957794    -0.74300
O272        O  0.51195129  0.06569514  0.98017783    -0.74300
Ni273      Ni  0.98214746  0.98229479  0.99759908     1.25400
Ni274      Ni  0.53772598  0.01341672  0.99474892     1.25400
C275        C  0.97820808  0.06860883  0.97716654     0.87900
C276        C  0.54207674  0.92762636  0.01630889     0.87900
C277        C  0.51969724  0.01971685  0.06652631     0.87900
C278        C  0.99992863  0.97507380  0.92609707     0.88100
C279        C  0.84182835  0.34167671  0.90475676     0.03300
C280        C  0.83158742  0.35095774  0.86552383    -0.12800
C281        C  0.81122911  0.38737349  0.85271635     0.00800
C282        C  0.80040535  0.41395447  0.87925843    -0.11400
C283        C  0.81095029  0.40536725  0.91868056     0.03300
C284        C  0.83211256  0.36933942  0.93126441    -0.10800
H285        H  0.83964371  0.33011554  0.84508883     0.08900
H286        H  0.78406933  0.44170545  0.86920180     0.06400
H287        H  0.84062052  0.36253653  0.96155712     0.06300
C288        C  0.68218711  0.66158372  0.10855195     0.03300
C289        C  0.69973282  0.63923000  0.08445660    -0.12800
C290        C  0.71593938  0.59970257  0.09585060     0.00800
C291        C  0.71577660  0.58390466  0.13234629    -0.11400
C292        C  0.70016452  0.60739861  0.15729579     0.03300
C293        C  0.68295915  0.64588307  0.14514864    -0.10800
H294        H  0.69965178  0.65181971  0.05650312     0.08900
H295        H  0.72816499  0.55346341  0.14157502     0.06400
H296        H  0.67012828  0.66361655  0.16418492     0.06900
O297        O  0.72448654  0.49847864  0.55883828    -0.74200
O298        O  0.70748525  0.53304104  0.45324884    -0.74300
O299        O  0.68753858  0.46685887  0.49099209    -0.74300
O300        O  0.74395338  0.56666423  0.52105239    -0.74400
O301        O  0.79286581  0.53213282  0.51468216    -0.74300
O302        O  0.73639060  0.43144204  0.48562888    -0.74300
O303        O  0.75650410  0.49848867  0.44815138    -0.74300
O304        O  0.77373470  0.46526584  0.55311848    -0.74300
Ni305      Ni  0.71421000  0.51763088  0.50635358     1.25400
Ni306      Ni  0.76657363  0.48051606  0.50027743     1.25400
C307        C  0.75188699  0.47555326  0.57350847     0.87900
C308        C  0.72915601  0.52099554  0.43307143     0.87900
C309        C  0.70258238  0.43292996  0.48297735     0.87900
C310        C  0.77743530  0.56616575  0.52212591     0.88100
C311        C  0.56027979  0.16876473  0.39060550     0.03300
C312        C  0.54689305  0.14305537  0.41595721    -0.12800
C313        C  0.53089970  0.10374776  0.40380668     0.00800
C314        C  0.52822085  0.09045716  0.36589286    -0.11400
C315        C  0.54094184  0.11621902  0.34019587     0.03300
C316        C  0.55674352  0.15541588  0.35259347    -0.10800
H317        H  0.54956020  0.15321219  0.44527271     0.08900
H318        H  0.51636892  0.05988490  0.35641017     0.06400
H319        H  0.56702968  0.17506353  0.33292404     0.06300
C320        C  0.91618538  0.83716653  0.59658418     0.03300
C321        C  0.92571136  0.86512712  0.57021279    -0.12800
C322        C  0.94728720  0.90072194  0.58295118     0.00800
C323        C  0.95872221  0.90827858  0.62250161    -0.11400
C324        C  0.94752782  0.88208340  0.64890459     0.03300
C325        C  0.92658007  0.84629885  0.63589314    -0.10800
H326        H  0.91664711  0.85889402  0.53989074     0.08900
H327        H  0.97547743  0.93552606  0.63278288     0.06400
H328        H  0.91832949  0.82563515  0.65630242     0.06300
C329        C  0.95751269  0.93065052  0.55518833     0.01500
C330        C  0.97604933  0.91595277  0.52798626     0.04400
C331        C  0.48620833  0.94472688  0.50245612    -0.11700
C332        C  0.98007603  0.98866925  0.50544682     0.23600
C333        C  0.96210486  0.00346765  0.53287905    -0.12300
C334        C  0.94961483  0.97451323  0.55655377     0.05100
C335        C  0.49291809  0.01930504  0.48005525     0.27500
C336        C  0.52950529  0.02955478  0.48711028    -0.13000
C337        C  0.54197038  0.05707680  0.46223625     0.05600
C338        C  0.51772136  0.07584276  0.43089039    -0.08900
C339        C  0.48091948  0.06692831  0.42479672     0.06400
C340        C  0.96866219  0.03810426  0.44880314    -0.13300
Br341      Br  0.95542850  0.06372418  0.53868656    -0.05400
Br342      Br  0.48962024  0.85690781  0.52674953     0.00200
Br343      Br  0.59253702  0.06753398  0.47031655     0.00700
Br344      Br  0.91864322  0.02376378  0.43854541    -0.03700
Br345      Br  0.91996112  0.99520580  0.58926529     0.00800
Br346      Br  0.50872097  0.92406128  0.46324962    -0.03000
Br347      Br  0.56253706  0.00584337  0.53108193    -0.03900
Br348      Br  0.94706615  0.09544349  0.38435187     0.00100
C349        C  0.79843527  0.60567140  0.53180679     0.01500
C350        C  0.80199538  0.62462338  0.56806508     0.04400
C351        C  0.82096165  0.66286706  0.57698162    -0.11700
C352        C  0.83719221  0.68201638  0.55000215     0.23600
C353        C  0.83404306  0.66295427  0.51384017    -0.12300
C354        C  0.81438739  0.62509529  0.50459014     0.05100
C355        C  0.85780683  0.72198070  0.56008188     0.27500
C356        C  0.84066696  0.76172807  0.55230586    -0.13000
C357        C  0.85977067  0.79951277  0.56374879     0.05600
C358        C  0.89609727  0.79767571  0.58321088    -0.08900
C359        C  0.91334603  0.75786908  0.59040382     0.06400
C360        C  0.89420618  0.72015825  0.57903896    -0.13300
Br361      Br  0.85668829  0.68894487  0.47712721    -0.05400
Br362      Br  0.78235131  0.59721901  0.60630940     0.00200
Br363      Br  0.83586465  0.85370708  0.55388290     0.00700
Br364      Br  0.91755372  0.66574903  0.59003115    -0.03700
Br365      Br  0.80793826  0.60096018  0.45403874     0.00800
Br366      Br  0.82484060  0.68928493  0.62627686    -0.03000
Br367      Br  0.79069068  0.76407828  0.52690842    -0.03900
Br368      Br  0.96352588  0.75502530  0.61508323     0.00100
C369        C  0.57985155  0.20849464  0.40442123     0.01500
C370        C  0.56153181  0.24432243  0.41392299     0.04400
C371        C  0.58043007  0.28173006  0.42739674    -0.11700
C372        C  0.61769495  0.28347745  0.43144914     0.23600
C373        C  0.63595576  0.24780193  0.42179269    -0.12300
C374        C  0.61714616  0.21044234  0.40833930     0.05100
C375        C  0.63783547  0.32298197  0.44508285     0.27500
C376        C  0.64224185  0.35422634  0.41855365    -0.13000
C377        C  0.66288285  0.39058722  0.43111206     0.05600
C378        C  0.68024700  0.39520756  0.47005570    -0.08900
C379        C  0.67479829  0.36475148  0.49678246     0.06400
C380        C  0.65352088  0.32876496  0.48434369    -0.13300
Br381      Br  0.68691420  0.25038998  0.42699742    -0.05400
Br382      Br  0.51039943  0.24259144  0.40728684     0.00200
Br383      Br  0.66615549  0.43479243  0.39512555     0.00700
Br384      Br  0.64557996  0.28738285  0.52093665    -0.03700
Br385      Br  0.64278498  0.16153835  0.39618808     0.00800
Br386      Br  0.55543534  0.33087171  0.44003824    -0.03000
Br387      Br  0.61999275  0.34693644  0.36495207    -0.03900
Br388      Br  0.69558438  0.37319659  0.55052275     0.00100
C389        C  0.72275812  0.53278064  0.39175589     0.01500
C390        C  0.70669019  0.57228905  0.37834864     0.04400
C391        C  0.70157204  0.58343529  0.33947722    -0.11700
C392        C  0.71260040  0.55572728  0.31375936     0.23600
C393        C  0.72816107  0.51638747  0.32653154    -0.12300
C394        C  0.73334537  0.50478002  0.36524588     0.05100
C395        C  0.70920993  0.56867657  0.27343254     0.27500
C396        C  0.67901237  0.55670985  0.24494592    -0.13000
C397        C  0.67615536  0.56882126  0.20666495     0.05600
C398        C  0.70345451  0.59295625  0.19695718    -0.08900
C399        C  0.73371669  0.60466300  0.22538824     0.06400
C400        C  0.73657330  0.59261570  0.26359841    -0.13300
Br401      Br  0.74256740  0.47853223  0.29043742    -0.05400
Br402      Br  0.69356104  0.61326064  0.41279111     0.00200
Br403      Br  0.63502841  0.55245891  0.16745675     0.00700
Br404      Br  0.77778458  0.60921311  0.30267014    -0.03700
Br405      Br  0.75432262  0.44959907  0.38034696     0.00800
Br406      Br  0.67992121  0.63720281  0.32102854    -0.03000
Br407      Br  0.64160625  0.52408495  0.25866520    -0.03900
Br408      Br  0.77105579  0.63768969  0.21187791     0.00100
C409        C  0.79942361  0.43390784  0.94657305     0.01500
C410        C  0.80921140  0.47727262  0.94891436     0.04400
C411        C  0.79625173  0.50488466  0.97341080    -0.11700
C412        C  0.77449019  0.48915502  0.99669481     0.23600
C413        C  0.76562794  0.44571012  0.99541985    -0.12300
C414        C  0.77762669  0.41823771  0.97009875     0.05100
C415        C  0.75998012  0.51860985  0.02163781     0.27500
C416        C  0.78135321  0.53145320  0.05719635    -0.13000
C417        C  0.76768840  0.55999199  0.08042279     0.05600
C418        C  0.73173669  0.57378219  0.06928312    -0.08900
C419        C  0.71035356  0.56063112  0.03356501     0.06400
C420        C  0.72478624  0.53401265  0.00950135    -0.13300
Br421      Br  0.73639694  0.42416280  0.02802760    -0.05400
Br422      Br  0.84132073  0.49896261  0.91959485     0.00200
Br423      Br  0.79898745  0.58153337  0.12656223     0.00700
Br424      Br  0.69630363  0.51818203  0.95976664    -0.03700
Br425      Br  0.76231497  0.35971666  0.96639267     0.00800
Br426      Br  0.80748038  0.56468255  0.97454849    -0.03000
Br427      Br  0.82918403  0.50913585  0.07425123    -0.03900
Br428      Br  0.66058324  0.57663971  0.01801975     0.00100
C429        C  0.75871200  0.46046084  0.61438989     0.01500
C430        C  0.74457691  0.48268125  0.64216197     0.04400
C431        C  0.75283759  0.46934679  0.68074195    -0.11700
C432        C  0.77487970  0.43381201  0.69230845     0.23600
C433        C  0.78813677  0.41076504  0.66511998    -0.12300
C434        C  0.77999052  0.42350854  0.62640055     0.05100
C435        C  0.78448092  0.42100235  0.73335009     0.27500
C436        C  0.81613030  0.43635415  0.75769981    -0.13000
C437        C  0.82496044  0.42503269  0.79668104     0.05600
C438        C  0.80212252  0.39846388  0.81154775    -0.08900
C439        C  0.77054474  0.38298472  0.78725979     0.06400
C440        C  0.76177850  0.39411926  0.74819108    -0.13300
Br441      Br  0.81767765  0.36133172  0.68152395    -0.05400
Br442      Br  0.71414307  0.53202097  0.62923468     0.00200
Br443      Br  0.86831985  0.44598277  0.82992994     0.00700
Br444      Br  0.71860357  0.37287557  0.71490269    -0.03700
Br445      Br  0.79704750  0.38756880  0.59063082     0.00800
Br446      Br  0.73436053  0.50003538  0.71860490    -0.03000
Br447      Br  0.84714746  0.47327365  0.73754894    -0.03900
Br448      Br  0.73926240  0.34688913  0.80782695     0.00100
C449        C  0.52460964  0.03310739  0.10762309     0.01500
C450        C  0.00581622  0.01213727  0.13212267     0.04400
C451        C  0.50988107  0.02545434  0.17034941    -0.11700
C452        C  0.53199122  0.05996842  0.18471122     0.23600
C453        C  0.55076424  0.08092982  0.16104152    -0.12300
C454        C  0.54723304  0.06783359  0.12276257     0.05100
C455        C  0.53463427  0.07485772  0.22460427     0.27500
C456        C  0.50762810  0.10103934  0.23292366    -0.13000
C457        C  0.50937370  0.11392385  0.27085762     0.05600
C458        C  0.53860878  0.10169401  0.30046421    -0.08900
C459        C  0.56571089  0.07572918  0.29213749     0.06400
C460        C  0.56346951  0.06182779  0.25437670    -0.13300
Br461      Br  0.58086736  0.12854292  0.18136459    -0.05400
Br462      Br  0.97416139  0.96463371  0.11520970     0.00200
Br463      Br  0.47140941  0.14763319  0.28256633     0.00700
Br464      Br  0.59938448  0.02414995  0.24337608    -0.03700
Br465      Br  0.57216363  0.10050438  0.09161482     0.00800
Br466      Br  0.98503208  0.99643125  0.20378556    -0.03000
Br467      Br  0.96814118  0.11893471  0.19221252    -0.03900
Br468      Br  0.60590643  0.05931077  0.33258429     0.00100
C469        C  0.95590804  0.89385510  0.68994349     0.01500
C470        C  0.93105524  0.91783031  0.70447621     0.04400
C471        C  0.93923998  0.93056906  0.74308621    -0.11700
C472        C  0.97201898  0.91866966  0.76755795     0.23600
C473        C  0.99672887  0.89425012  0.75317387    -0.12300
C474        C  0.98888895  0.88237444  0.71427444     0.05100
C475        C  0.98049178  0.93225627  0.80833161     0.27500
C476        C  0.99910943  0.97031191  0.81932876    -0.13000
C477        C  0.50660469  0.98383057  0.85781127     0.05600
C478        C  0.99427039  0.95987991  0.88562092    -0.08900
C479        C  0.97598049  0.92106407  0.87422292     0.06400
C480        C  0.96931747  0.90748278  0.83582672    -0.13300
Br481      Br  0.54120385  0.87714795  0.78695603    -0.05400
Br482      Br  0.88597337  0.93382232  0.67117780     0.00200
Br483      Br  0.53328794  0.03577356  0.87095569     0.00700
Br484      Br  0.94462505  0.85469684  0.82036120    -0.03700
Br485      Br  0.02334283  0.85082346  0.69406909     0.00800
Br486      Br  0.90584925  0.96491179  0.76254489    -0.03000
Br487      Br  0.51348949  0.00440485  0.78090660    -0.03900
Br488      Br  0.96128443  0.88424457  0.91077366     0.00100
C489        C  0.56107243  0.88742931  0.02904121     0.01500
C490        C  0.56941945  0.87662517  0.06817591     0.04400
C491        C  0.58844321  0.83906060  0.08077263    -0.11700
C492        C  0.59982159  0.81246664  0.05437296     0.23600
C493        C  0.59155323  0.82319396  0.01520298    -0.12300
C494        C  0.57241580  0.86077957  0.00258146     0.05100
C495        C  0.62106996  0.77367772  0.06801833     0.27500
C496        C  0.65844809  0.77637026  0.08164093    -0.13000
C497        C  0.67857743  0.73964229  0.09471314     0.05600
C498        C  0.66131957  0.70028824  0.09474087    -0.08900
C499        C  0.62388346  0.69774450  0.08186223     0.06400
C500        C  0.60384633  0.73428023  0.06810502    -0.13300
Br501      Br  0.60660218  0.78624571  0.97904750    -0.05400
Br502      Br  0.55667782  0.91457689  0.10490700     0.00200
Br503      Br  0.72966860  0.74319333  0.11350418     0.00700
Br504      Br  0.55276240  0.73056638  0.04935959    -0.03700
Br505      Br  0.56222380  0.87611269  0.94918943     0.00800
Br506      Br  0.59919710  0.82394271  0.13428472    -0.03000
Br507      Br  0.68188516  0.83055556  0.08272656    -0.03900
Br508      Br  0.60007304  0.64410316  0.08319852     0.00100
C509        C  0.86288865  0.30290021  0.91803095     0.01500
C510        C  0.84539219  0.26458458  0.92225753     0.04400
C511        C  0.86539024  0.22725709  0.93327212    -0.11700
C512        C  0.90297234  0.22821599  0.94044077     0.23600
C513        C  0.92048050  0.26682316  0.93726152    -0.12300
C514        C  0.90044593  0.30404311  0.92581333     0.05100
C515        C  0.92385934  0.18828194  0.95011858     0.27500
C516        C  0.93603255  0.17563625  0.98857608    -0.13000
C517        C  0.95384641  0.13644504  0.99742748     0.05600
C518        C  0.96006748  0.11005781  0.96787247    -0.08900
C519        C  0.94838687  0.12310340  0.92948604     0.06400
C520        C  0.93047233  0.16218804  0.92062187    -0.13300
Br521      Br  0.97189788  0.26845970  0.94845892    -0.05400
Br522      Br  0.79399112  0.26328369  0.91252145     0.00200
Br523      Br  0.46918157  0.11861724  0.05002964     0.00700
Br524      Br  0.91475340  0.18014409  0.86802802    -0.03700
Br525      Br  0.92424273  0.35665775  0.92028191     0.00800
Br526      Br  0.84142803  0.17455929  0.93819164    -0.03000
Br527      Br  0.92826985  0.21225798  0.02895774    -0.03900
Br528      Br  0.95568465  0.08666138  0.88895767     0.00100
loop_ 
_geom_bond_atom_site_label_1 
_geom_bond_atom_site_label_2 
_geom_bond_distance 
_geom_bond_site_symmetry_2 
_ccdc_geom_bond_type 
O1           Ni9   1.920   1_545  S
O1           C11   1.280       .  A
O2           Ni9   1.931   1_554  S
O2          C276   1.283       .  A
O3           Ni9   1.911   1_544  S
O3          C277   1.278       .  A
O4           Ni9   1.915       .  S
O4           C14   1.280       .  A
O5          Ni10   1.926   1_565  S
O5          C278   1.283   1_455  A
O6          Ni10   1.927   1_554  S
O6           C13   1.283       .  A
O7          Ni10   1.915   1_564  S
O7           C12   1.279       .  A
O8          Ni10   1.927       .  S
O8          C275   1.282   1_455  A
Ni9        Ni274   2.382   1_565  S
Ni10       Ni273   2.382   1_445  S
C11         O272   1.282       .  A
C11         C254   1.479       .  S
C12         O266   1.283       .  A
C12         C225   1.478       .  S
C13         O267   1.278   1_455  A
C13         C185   1.504       .  S
C14         O269   1.283       .  A
C14         C214   1.498       .  S
C15         C245   1.479       .  S
C15          C16   1.403       .  A
C15          C20   1.403       .  A
C16          C17   1.402       .  A
C16          H21   1.082       .  S
C17         C174   1.480       .  S
C17          C18   1.402       .  A
C18          C19   1.406       .  A
C18          H22   1.086       .  S
C19         C145   1.488       .  S
C19          C20   1.406       .  A
C20          H23   1.082       .  S
C24         C234   1.478       .  S
C24          C25   1.404       .  A
C24          C29   1.399       .  A
C25          C26   1.408       .  A
C25          H30   1.080       .  S
C26         C154   1.488       .  S
C26          C27   1.405       .  A
C27          C28   1.400       .  A
C27          H31   1.086       .  S
C28         C134   1.474       .  S
C28          C29   1.399       .  A
C29          H32   1.086       .  S
O33         Ni41   1.931       .  S
O33          C43   1.284       .  A
O34         Ni41   1.927       .  S
O34          C44   1.284       .  A
O35         Ni41   1.912       .  S
O35          C45   1.278       .  A
O36         Ni41   1.924       .  S
O36          C46   1.281       .  A
O37         Ni42   1.923       .  S
O37          C46   1.281       .  A
O38         Ni42   1.933       .  S
O38          C45   1.284       .  A
O39         Ni42   1.908       .  S
O39          C44   1.278       .  A
O40         Ni42   1.915       .  S
O40          C43   1.280       .  A
Ni41        Ni42   2.382       .  S
C43         C165   1.508       .  S
C44         C125   1.494       .  S
C45         C114   1.478       .  S
C46          C85   1.482       .  S
C47         C105   1.486       .  S
C47          C48   1.406       .  A
C47          C52   1.405       .  A
C48          C49   1.407       .  A
C48          H53   1.082       .  S
C49          C74   1.488       .  S
C49          C50   1.405       .  A
C50          C51   1.403       .  A
C50          H54   1.086       .  S
C51         C194   1.481       .  S
C51          C52   1.403       .  A
C52          H55   1.083       .  S
C56          C94   1.485       .  S
C56          C57   1.405       .  A
C56          C61   1.405       .  A
C57          C58   1.408       .  A
C57          H62   1.081       .  S
C58          C65   1.493       .  S
C58          C59   1.406       .  A
C59          C60   1.401       .  A
C59          H63   1.086       .  S
C60         C205   1.481       .  S
C60          C61   1.402       .  A
C61          H64   1.084       .  S
C65          C66   1.416       .  A
C65          C70   1.416       .  A
C66         C331   1.410       .  A
C66        Br342   1.932       .  S
C67         C330   1.410       .  A
C67         C332   1.411       .  A
C67         Br82   1.931   1_655  S
C68         C335   1.492   1_565  S
C68          C69   1.409   1_565  A
C68         C331   1.411       .  A
C69          C70   1.408   1_545  A
C69         Br77   1.931       .  S
C70         Br81   1.933       .  S
C71         C332   1.492   1_545  S
C71          C72   1.411   1_655  A
C71         C340   1.411       .  A
C72          C73   1.410       .  A
C72         Br83   1.931       .  S
C73          C74   1.412       .  A
C73         Br79   1.931       .  S
C74          C75   1.412   1_455  A
C75         C340   1.410       .  A
C75        Br348   1.930       .  S
C76         C335   1.411       .  A
C76         C339   1.410       .  A
C76         Br80   1.930       .  S
Br78        C330   1.932       .  S
Br84        C339   1.930       .  S
C85          C86   1.410       .  A
C85          C90   1.412       .  A
C86          C87   1.407       .  A
C86         Br98   1.924       .  S
C87          C88   1.408       .  A
C87        Br102   1.930       .  S
C88          C91   1.488       .  S
C88          C89   1.410       .  A
C89          C90   1.411       .  A
C89         Br97   1.929       .  S
C90        Br101   1.930       .  S
C91          C92   1.410       .  A
C91          C96   1.409       .  A
C92          C93   1.410       .  A
C92        Br103   1.929       .  S
C93          C94   1.411       .  A
C93         Br99   1.929       .  S
C94          C95   1.412       .  A
C95          C96   1.408       .  A
C95        Br104   1.931       .  S
C96        Br100   1.929       .  S
C105        C106   1.412       .  A
C105        C110   1.412       .  A
C106        C107   1.411       .  A
C106       Br118   1.929       .  S
C107        C108   1.410       .  A
C107       Br122   1.929       .  S
C108        C111   1.488       .  S
C108        C109   1.409       .  A
C109        C110   1.408       .  A
C109       Br117   1.930       .  S
C110       Br121   1.930       .  S
C111        C112   1.409       .  A
C111        C116   1.410       .  A
C112        C113   1.408       .  A
C112       Br123   1.930       .  S
C113        C114   1.410       .  A
C113       Br119   1.925       .  S
C114        C115   1.409       .  A
C115        C116   1.410       .  A
C115       Br124   1.928       .  S
C116       Br120   1.928       .  S
C125        C126   1.421       .  A
C125        C130   1.424       .  A
C126        C127   1.409       .  A
C126       Br138   1.933       .  S
C127        C128   1.405       .  A
C127       Br142   1.932       .  S
C128        C131   1.482       .  S
C128        C129   1.404       .  A
C129        C130   1.407       .  A
C129       Br137   1.934       .  S
C130       Br141   1.937       .  S
C131        C132   1.410       .  A
C131        C136   1.409       .  A
C132        C133   1.407       .  A
C132       Br143   1.929       .  S
C133        C134   1.408       .  A
C133       Br139   1.928       .  S
C134        C135   1.408       .  A
C135        C136   1.404       .  A
C135       Br144   1.930       .  S
C136       Br140   1.930       .  S
C145        C146   1.414       .  A
C145        C150   1.414       .  A
C146        C147   1.407       .  A
C146       Br158   1.930       .  S
C147        C148   1.408       .  A
C147       Br162   1.931       .  S
C148        C151   1.485   1_556  S
C148        C149   1.409       .  A
C149        C150   1.408       .  A
C149       Br157   1.931   1_556  S
C150       Br161   1.931       .  S
C151        C152   1.408       .  A
C151        C156   1.408       .  A
C152        C153   1.408       .  A
C152       Br163   1.931       .  S
C153        C154   1.415       .  A
C153       Br159   1.931       .  S
C154        C155   1.415       .  A
C155        C156   1.407       .  A
C155       Br164   1.932       .  S
C156       Br160   1.931   1_554  S
C165        C166   1.426       .  A
C165        C170   1.428       .  A
C166        C167   1.412       .  A
C166       Br178   1.933       .  S
C167        C168   1.405       .  A
C167       Br182   1.933       .  S
C168        C171   1.490       .  S
C168        C169   1.404       .  A
C169        C170   1.411       .  A
C169       Br177   1.934       .  S
C170       Br181   1.937       .  S
C171        C172   1.410       .  A
C171        C176   1.411       .  A
C172        C173   1.408       .  A
C172       Br183   1.929       .  S
C173        C174   1.409       .  A
C173       Br179   1.929       .  S
C174        C175   1.409       .  A
C175        C176   1.409       .  A
C175       Br184   1.929       .  S
C176       Br180   1.928       .  S
C185        C190   1.426       .  A
C185        C450   1.428       .  A
C186        C449   1.428       .  A
C186        C451   1.409       .  A
C186       Br198   1.938   1_545  S
C187        C188   1.404       .  A
C187        C450   1.409       .  A
C187       Br466   1.935   1_445  S
C188        C191   1.489       .  S
C188        C189   1.406       .  A
C189        C190   1.411       .  A
C189       Br197   1.933       .  S
C190       Br201   1.936       .  S
C191        C192   1.411       .  A
C191        C196   1.410       .  A
C192        C193   1.408       .  A
C192       Br467   1.930   1_455  S
C193        C194   1.409       .  A
C193       Br199   1.928   1_455  S
C194        C195   1.410       .  A
C195        C196   1.409       .  A
C195       Br204   1.928       .  S
C196       Br200   1.929       .  S
Br202       C451   1.935   1_565  S
Br203       C456   1.930       .  S
C205        C206   1.410       .  A
C205        C210   1.409       .  A
C206        C207   1.407       .  A
C206       Br218   1.929       .  S
C207        C208   1.409       .  A
C207       Br222   1.929       .  S
C208        C211   1.487       .  S
C208        C209   1.410       .  A
C209        C210   1.410       .  A
C209       Br481   1.929       .  S
C210       Br221   1.928       .  S
C211        C212   1.406       .  A
C211        C216   1.405       .  A
C212        C477   1.410       .  A
C212       Br487   1.932   1_565  S
C213        C476   1.410   1_455  A
C213        C478   1.421   1_455  A
C213       Br219   1.933   1_565  S
C214        C215   1.423       .  A
C214        C477   1.421       .  A
C215        C216   1.409       .  A
C215       Br224   1.936       .  S
C216       Br220   1.933       .  S
Br217       C473   1.929   1_455  S
Br223       C476   1.932   1_445  S
C225        C226   1.409       .  A
C225        C230   1.410       .  A
C226        C227   1.407       .  A
C226       Br238   1.925       .  S
C227        C228   1.408       .  A
C227       Br242   1.930       .  S
C228        C231   1.486       .  S
C228        C229   1.410       .  A
C229        C230   1.410       .  A
C229       Br237   1.929   1_554  S
C230       Br241   1.928   1_554  S
C231        C232   1.411       .  A
C231        C236   1.409       .  A
C232        C233   1.408       .  A
C232       Br243   1.929       .  S
C233        C234   1.408       .  A
C233       Br239   1.929       .  S
C234        C235   1.410       .  A
C235        C236   1.407       .  A
C235       Br244   1.930       .  S
C236       Br240   1.929       .  S
C245        C246   1.409       .  A
C245        C250   1.408       .  A
C246        C247   1.408       .  A
C246       Br258   1.929       .  S
C247        C248   1.410       .  A
C247       Br262   1.929       .  S
C248        C251   1.487       .  S
C248        C249   1.410       .  A
C249        C250   1.408       .  A
C249       Br257   1.928       .  S
C250       Br261   1.929       .  S
C251        C252   1.409       .  A
C251        C256   1.409       .  A
C252        C253   1.409       .  A
C252       Br263   1.929   1_556  S
C253        C254   1.411       .  A
C253       Br523   1.927   1_556  S
C254        C255   1.408       .  A
C255        C256   1.408       .  A
C255       Br264   1.924       .  S
C256       Br260   1.929       .  S
Br259       C517   1.927   1_554  S
O265       Ni273   1.920   1_545  S
O265        C275   1.280       .  A
O266       Ni273   1.931   1_454  S
O267       Ni273   1.911   1_544  S
O268       Ni273   1.915       .  S
O268        C278   1.280       .  A
O269       Ni274   1.926   1_565  S
O270       Ni274   1.927   1_554  S
O270        C277   1.283       .  A
O271       Ni274   1.915   1_564  S
O271        C276   1.279       .  A
O272       Ni274   1.927       .  S
C275        C518   1.479       .  S
C276        C489   1.478       .  S
C277        C449   1.504       .  S
C278        C478   1.498       .  S
C279        C509   1.479       .  S
C279        C280   1.403       .  A
C279        C284   1.403       .  A
C280        C281   1.402       .  A
C280        H285   1.082       .  S
C281        C438   1.480       .  S
C281        C282   1.402       .  A
C282        C283   1.406       .  A
C282        H286   1.086       .  S
C283        C409   1.488       .  S
C283        C284   1.406       .  A
C284        H287   1.082       .  S
C288        C498   1.478       .  S
C288        C289   1.404       .  A
C288        C293   1.399       .  A
C289        C290   1.408       .  A
C289        H294   1.080       .  S
C290        C418   1.488       .  S
C290        C291   1.405       .  A
C291        C292   1.400       .  A
C291        H295   1.086       .  S
C292        C398   1.474       .  S
C292        C293   1.399       .  A
C293        H296   1.086       .  S
O297       Ni305   1.931       .  S
O297        C307   1.284       .  A
O298       Ni305   1.927       .  S
O298        C308   1.284       .  A
O299       Ni305   1.912       .  S
O299        C309   1.278       .  A
O300       Ni305   1.924       .  S
O300        C310   1.281       .  A
O301       Ni306   1.923       .  S
O301        C310   1.281       .  A
O302       Ni306   1.933       .  S
O302        C309   1.284       .  A
O303       Ni306   1.908       .  S
O303        C308   1.278       .  A
O304       Ni306   1.915       .  S
O304        C307   1.280       .  A
Ni305      Ni306   2.382       .  S
C307        C429   1.508       .  S
C308        C389   1.494       .  S
C309        C378   1.478       .  S
C310        C349   1.482       .  S
C311        C369   1.486       .  S
C311        C312   1.406       .  A
C311        C316   1.405       .  A
C312        C313   1.407       .  A
C312        H317   1.082       .  S
C313        C338   1.488       .  S
C313        C314   1.405       .  A
C314        C315   1.403       .  A
C314        H318   1.086       .  S
C315        C458   1.481       .  S
C315        C316   1.403       .  A
C316        H319   1.083       .  S
C320        C358   1.485       .  S
C320        C321   1.405       .  A
C320        C325   1.405       .  A
C321        C322   1.408       .  A
C321        H326   1.081       .  S
C322        C329   1.493       .  S
C322        C323   1.406       .  A
C323        C324   1.401       .  A
C323        H327   1.086       .  S
C324        C469   1.481       .  S
C324        C325   1.402       .  A
C325        H328   1.084       .  S
C329        C330   1.416       .  A
C329        C334   1.416       .  A
C331       Br346   1.931       .  S
C332        C333   1.409   1_565  A
C333        C334   1.408   1_545  A
C333       Br341   1.931       .  S
C334       Br345   1.933       .  S
C335        C336   1.411       .  A
C336        C337   1.410       .  A
C336       Br347   1.931       .  S
C337        C338   1.412       .  A
C337       Br343   1.931       .  S
C338        C339   1.412       .  A
C340       Br344   1.930       .  S
C349        C350   1.410       .  A
C349        C354   1.412       .  A
C350        C351   1.407       .  A
C350       Br362   1.924       .  S
C351        C352   1.408       .  A
C351       Br366   1.930       .  S
C352        C355   1.488       .  S
C352        C353   1.410       .  A
C353        C354   1.411       .  A
C353       Br361   1.929       .  S
C354       Br365   1.930       .  S
C355        C356   1.410       .  A
C355        C360   1.409       .  A
C356        C357   1.410       .  A
C356       Br367   1.929       .  S
C357        C358   1.411       .  A
C357       Br363   1.929       .  S
C358        C359   1.412       .  A
C359        C360   1.408       .  A
C359       Br368   1.931       .  S
C360       Br364   1.929       .  S
C369        C370   1.412       .  A
C369        C374   1.412       .  A
C370        C371   1.411       .  A
C370       Br382   1.929       .  S
C371        C372   1.410       .  A
C371       Br386   1.929       .  S
C372        C375   1.488       .  S
C372        C373   1.409       .  A
C373        C374   1.408       .  A
C373       Br381   1.930       .  S
C374       Br385   1.930       .  S
C375        C376   1.409       .  A
C375        C380   1.410       .  A
C376        C377   1.408       .  A
C376       Br387   1.930       .  S
C377        C378   1.410       .  A
C377       Br383   1.925       .  S
C378        C379   1.409       .  A
C379        C380   1.410       .  A
C379       Br388   1.928       .  S
C380       Br384   1.928       .  S
C389        C390   1.421       .  A
C389        C394   1.424       .  A
C390        C391   1.409       .  A
C390       Br402   1.933       .  S
C391        C392   1.405       .  A
C391       Br406   1.932       .  S
C392        C395   1.482       .  S
C392        C393   1.404       .  A
C393        C394   1.407       .  A
C393       Br401   1.934       .  S
C394       Br405   1.937       .  S
C395        C396   1.410       .  A
C395        C400   1.409       .  A
C396        C397   1.407       .  A
C396       Br407   1.929       .  S
C397        C398   1.408       .  A
C397       Br403   1.928       .  S
C398        C399   1.408       .  A
C399        C400   1.404       .  A
C399       Br408   1.930       .  S
C400       Br404   1.930       .  S
C409        C410   1.414       .  A
C409        C414   1.414       .  A
C410        C411   1.407       .  A
C410       Br422   1.930       .  S
C411        C412   1.408       .  A
C411       Br426   1.931       .  S
C412        C415   1.485   1_556  S
C412        C413   1.409       .  A
C413        C414   1.408       .  A
C413       Br421   1.931   1_556  S
C414       Br425   1.931       .  S
C415        C416   1.408       .  A
C415        C420   1.408       .  A
C416        C417   1.408       .  A
C416       Br427   1.931       .  S
C417        C418   1.415       .  A
C417       Br423   1.931       .  S
C418        C419   1.415       .  A
C419        C420   1.407       .  A
C419       Br428   1.932       .  S
C420       Br424   1.931   1_554  S
C429        C430   1.426       .  A
C429        C434   1.428       .  A
C430        C431   1.412       .  A
C430       Br442   1.933       .  S
C431        C432   1.405       .  A
C431       Br446   1.933       .  S
C432        C435   1.490       .  S
C432        C433   1.404       .  A
C433        C434   1.411       .  A
C433       Br441   1.934       .  S
C434       Br445   1.937       .  S
C435        C436   1.410       .  A
C435        C440   1.411       .  A
C436        C437   1.408       .  A
C436       Br447   1.929       .  S
C437        C438   1.409       .  A
C437       Br443   1.929       .  S
C438        C439   1.409       .  A
C439        C440   1.409       .  A
C439       Br448   1.929       .  S
C440       Br444   1.928       .  S
C449        C454   1.426       .  A
C450       Br462   1.938   1_445  S
C451        C452   1.404       .  A
C452        C455   1.489       .  S
C452        C453   1.406       .  A
C453        C454   1.411       .  A
C453       Br461   1.933       .  S
C454       Br465   1.936       .  S
C455        C456   1.411       .  A
C455        C460   1.410       .  A
C456        C457   1.408       .  A
C457        C458   1.409       .  A
C457       Br463   1.928       .  S
C458        C459   1.410       .  A
C459        C460   1.409       .  A
C459       Br468   1.928       .  S
C460       Br464   1.929       .  S
C469        C470   1.410       .  A
C469        C474   1.409       .  A
C470        C471   1.407       .  A
C470       Br482   1.929       .  S
C471        C472   1.409       .  A
C471       Br486   1.929       .  S
C472        C475   1.487       .  S
C472        C473   1.410       .  A
C473        C474   1.410       .  A
C474       Br485   1.928   1_655  S
C475        C476   1.406       .  A
C475        C480   1.405       .  A
C477       Br483   1.933   1_565  S
C478        C479   1.423       .  A
C479        C480   1.409       .  A
C479       Br488   1.936       .  S
C480       Br484   1.933       .  S
C489        C490   1.409       .  A
C489        C494   1.410       .  A
C490        C491   1.407       .  A
C490       Br502   1.925       .  S
C491        C492   1.408       .  A
C491       Br506   1.930       .  S
C492        C495   1.486       .  S
C492        C493   1.410       .  A
C493        C494   1.410       .  A
C493       Br501   1.929   1_554  S
C494       Br505   1.928   1_554  S
C495        C496   1.411       .  A
C495        C500   1.409       .  A
C496        C497   1.408       .  A
C496       Br507   1.929       .  S
C497        C498   1.408       .  A
C497       Br503   1.929       .  S
C498        C499   1.410       .  A
C499        C500   1.407       .  A
C499       Br508   1.930       .  S
C500       Br504   1.929       .  S
C509        C510   1.409       .  A
C509        C514   1.408       .  A
C510        C511   1.408       .  A
C510       Br522   1.929       .  S
C511        C512   1.410       .  A
C511       Br526   1.929       .  S
C512        C515   1.487       .  S
C512        C513   1.410       .  A
C513        C514   1.408       .  A
C513       Br521   1.928       .  S
C514       Br525   1.929       .  S
C515        C516   1.409       .  A
C515        C520   1.409       .  A
C516        C517   1.409       .  A
C516       Br527   1.929   1_556  S
C517        C518   1.411       .  A
C518        C519   1.408       .  A
C519        C520   1.408       .  A
C519       Br528   1.924       .  S
C520       Br524   1.929       .  S
