geometry optimzed in LAMMPS
_audit_creation_date              2020-11-30 
_audit_creation_method            'lammps2cif' 
_symmetry_space_group_name_H-M    'P1' 
_symmetry_Int_Tables_number       1 
_symmetry_cell_setting            triclinic 
loop_ 
_symmetry_equiv_pos_as_xyz 
  x,y,z 
_cell_length_a                    27.59575731 
_cell_length_b                    27.5378233176483 
_cell_length_c                    33.79344656127522 
_cell_angle_alpha                 89.98058295411765 
_cell_angle_beta                  87.5382712420791 
_cell_angle_gamma                 120.28887791676236 
loop_ 
_atom_site_label 
_atom_site_type_symbol 
_atom_site_fract_x 
_atom_site_fract_y 
_atom_site_fract_z 
_atom_site_charge 
In1        In  0.60717966  0.60080727  0.34996992     1.36900
C2          C  0.62968888  0.54765721  0.40535484     0.82700
O3          O  0.60156504  0.65481805  0.39814244    -0.55700
O4          O  0.52615098  0.59247496  0.37330728    -0.46600
C5          C  0.67626506  0.67687231  0.29588438     0.75400
O6          O  0.68858633  0.64405306  0.31281703    -0.41500
C7          C  0.54931553  0.52154373  0.29984146     0.80100
O8          O  0.66415704  0.59836241  0.39533197    -0.53300
O9          O  0.53550426  0.55679245  0.31084782    -0.43400
O10         O  0.58553063  0.52461654  0.38658465    -0.49800
C11         C  0.54852705  0.62957799  0.39887790     0.90300
O12         O  0.63307833  0.67604924  0.31028728    -0.51700
O13         O  0.59501251  0.52909958  0.31207835    -0.55000
In14       In  0.33896463  0.33281507  0.36272100     1.36900
C15         C  0.39243910  0.31068203  0.41693846     0.82700
O16         O  0.40949164  0.34370727  0.32120990    -0.55700
O17         O  0.38256226  0.40388394  0.31902430    -0.46600
C18         C  0.26319358  0.26493633  0.31337587     0.75400
O19         O  0.29523633  0.25164383  0.32967566    -0.41500
C20         C  0.31156292  0.39281730  0.41011483     0.80100
O21         O  0.34156185  0.27625682  0.41041054    -0.53300
O22         O  0.34891617  0.41458739  0.38257094    -0.43400
O23         O  0.41539922  0.35445211  0.39533426    -0.49800
C24         C  0.41693858  0.38924796  0.30673001     0.90300
O25         O  0.26384901  0.30778410  0.32688636    -0.51700
O26         O  0.28541186  0.33967790  0.41229516    -0.55000
In27       In  0.59840021  0.61544895  0.13676769     1.36900
C28         C  0.62610188  0.55599547  0.08896488     0.82700
O29         O  0.55072633  0.54388112  0.17944559    -0.55700
O30         O  0.52961477  0.60847810  0.17862814    -0.46600
C31         C  0.67546166  0.68158180  0.18600722     0.75400
O32         O  0.67068978  0.63608058  0.17439152    -0.41500
C33         C  0.54491367  0.63764702  0.08266987     0.80100
O34         O  0.65162134  0.60910270  0.08668639    -0.53300
O35         O  0.52205389  0.59362307  0.10401377    -0.43400
O36         O  0.58928464  0.53400176  0.11682819    -0.49800
C37         C  0.51873866  0.56125009  0.19220497     0.90300
O38         O  0.64670949  0.69772988  0.16813432    -0.51700
O39         O  0.59564833  0.67228872  0.08944168    -0.55000
In40       In  0.33098181  0.34869062  0.14893584     1.36900
C41         C  0.30843436  0.40137663  0.09331193     0.82700
O42         O  0.33986418  0.41974170  0.18648118    -0.55700
O43         O  0.40236141  0.39600632  0.18764976    -0.46600
C44         C  0.26379529  0.27165450  0.20319213     0.75400
O45         O  0.24886684  0.30170456  0.18523153    -0.41500
C46         C  0.38969157  0.31975215  0.10026545     0.80100
O47         O  0.27322729  0.35126372  0.10431473    -0.53300
O48         O  0.41192821  0.35627230  0.12623074    -0.43400
O49         O  0.35344816  0.42398607  0.11111815    -0.49800
C50         C  0.38646876  0.42970681  0.19855297     0.90300
O51         O  0.30893905  0.27571235  0.18982199    -0.51700
O52         O  0.33671284  0.29516297  0.10046566    -0.55000
C53         C  0.30277051  0.79062538  0.49856215     0.02700
C54         C  0.45465579  0.79172578  0.49137255     0.02700
C55         C  0.45433832  0.64177675  0.49108642     0.02700
C56         C  0.30196091  0.48989139  0.49826009     0.02700
C57         C  0.15221944  0.64039160  0.50066523     0.02700
C58         C  0.15172802  0.48868515  0.00068148     0.02700
In59       In  0.60695057  0.98746009  0.35040452     1.36900
C60         C  0.62876312  0.06283750  0.40597565     0.82700
O61         O  0.59577037  0.04758114  0.31249810    -0.55700
O62         O  0.53548480  0.95994476  0.31126330    -0.46600
C63         C  0.67573611  0.98066490  0.29639802     0.75400
O64         O  0.68879858  0.02585527  0.31371596    -0.41500
C65         C  0.54855772  0.89925591  0.39918904     0.80100
O66         O  0.66371678  0.04769044  0.39571718    -0.53300
O67         O  0.52608603  0.91355547  0.37355811    -0.43400
O68         O  0.58448485  0.04082960  0.38733215    -0.49800
C69         C  0.54989560  0.00930956  0.30022419     0.90300
O70         O  0.63186246  0.93812835  0.31035181    -0.51700
O71         O  0.60157628  0.92788510  0.39856142    -0.55000
In72       In  0.33969066  0.98513240  0.36282606     1.36900
C73         C  0.31255546  0.89758131  0.41036273     0.82700
O74         O  0.38369745  0.95865048  0.31911712    -0.55700
O75         O  0.41010562  0.04590818  0.32133909    -0.46600
C76         C  0.26337094  0.97555182  0.31366000     0.75400
O77         O  0.26445293  0.93362563  0.32725451    -0.41500
C78         C  0.39276462  0.06134805  0.41703381     0.80100
O79         O  0.28643629  0.92431587  0.41259138    -0.53300
O80         O  0.41573055  0.04036432  0.39589305    -0.43400
O81         O  0.34974968  0.91347443  0.38271194    -0.49800
C82         C  0.41787016  0.00811252  0.30685616     0.91500
O83         O  0.29539018  0.02143928  0.32971995    -0.51700
O84         O  0.34211990  0.04476255  0.41002566    -0.55000
In85       In  0.59855494  0.96304983  0.13720424     1.36900
C86         C  0.62548188  0.05044581  0.08956590     0.82700
O87         O  0.59610924  0.90334096  0.09004057    -0.55700
O88         O  0.52266415  0.90815000  0.10398901    -0.46600
C89         C  0.67543413  0.97425964  0.18645374     0.75400
O90         O  0.67240803  0.01546164  0.17365254    -0.41500
C91         C  0.51906345  0.93782731  0.19258402     0.80100
O92         O  0.65126262  0.02339527  0.08706575    -0.53300
O93         O  0.52838256  0.90088793  0.17835816    -0.43400
O94         O  0.58884682  0.03501649  0.11756711    -0.49800
C95         C  0.54553701  0.88700984  0.08292192     0.90300
O96         O  0.64506431  0.92850679  0.16965341    -0.51700
O97         O  0.55252030  0.98758185  0.18054053    -0.55000
In98       In  0.33065414  0.96077285  0.14922114     1.36900
C99         C  0.30857026  0.88539111  0.09360702     0.82700
O100        O  0.33597665  0.02003654  0.10080392    -0.55700
O101        O  0.41135082  0.03529276  0.12649450    -0.46600
C102        C  0.26314066  0.96911124  0.20358451     0.75400
O103        O  0.24854126  0.92405937  0.18561002    -0.41500
C104        C  0.38685997  0.93667063  0.19876292     0.80100
O105        O  0.27329246  0.89991329  0.10438322    -0.53300
O106        O  0.40243334  0.98630907  0.18769469    -0.43400
O107        O  0.35337454  0.90818739  0.11165098    -0.49800
C108        C  0.38894649  0.04920970  0.10056925     0.90300
O109        O  0.30805267  0.01093874  0.19017141    -0.51700
O110        O  0.34022938  0.89926033  0.18690380    -0.55000
C111        C  0.78559167  0.45917782  0.99842994     0.02700
C112        C  0.78514496  0.30745201  0.99869978     0.02700
C113        C  0.48372043  0.30704334  0.00823275     0.02700
C114        C  0.63589242  0.45916507  0.00059852     0.02700
C115        C  0.63466199  0.15716227  0.50135726     0.02700
C116        C  0.48325697  0.15696160  0.50859755     0.02700
In117      In  0.98069940  0.61375808  0.35636111     1.36900
C118        C  0.05670561  0.63570344  0.40957973     0.82700
O119        O  0.92057775  0.60791010  0.40616490    -0.55700
O120        O  0.90774470  0.53250694  0.37955919    -0.46600
C121        C  0.97534398  0.68285124  0.30451503     0.75400
O122        O  0.02040719  0.69509133  0.32048987    -0.41500
C123        C  0.00000133  0.55559550  0.30287067     0.80100
O124        O  0.04062065  0.67019569  0.40188773    -0.53300
O125        O  0.95110185  0.54221401  0.31546749    -0.43400
O126        O  0.03529952  0.59188266  0.38960798    -0.49800
C127        C  0.89273226  0.55477359  0.40617695     0.90300
O128        O  0.93223712  0.64024169  0.31925760    -0.51700
O129        O  0.03911177  0.60086849  0.31553422    -0.55000
In130      In  0.97852518  0.34501994  0.35656338     1.36900
C131        C  0.05501955  0.39812669  0.40976613     0.82700
O132        O  0.03776462  0.41709960  0.31612590    -0.55700
O133        O  0.94989729  0.38710587  0.31518174    -0.46600
C134        C  0.97172601  0.26976591  0.30490754     0.75400
O135        O  0.01724296  0.30343243  0.32019595    -0.41500
C136        C  0.89107492  0.31739455  0.40640712     0.80100
O137        O  0.03794777  0.34726447  0.40180308    -0.53300
O138        O  0.90676296  0.35468138  0.37956980    -0.43400
O139        O  0.03425673  0.42126445  0.39010172    -0.49800
C140        C  0.99904155  0.42309277  0.30299899     0.90300
O141        O  0.92893605  0.26885261  0.32024883    -0.51700
O142        O  0.91789313  0.29135753  0.40658511    -0.55000
In143      In  0.95851212  0.60130155  0.14296280     1.36900
C144        C  0.04617497  0.62941442  0.09321624     0.82700
O145        O  0.98016759  0.55240222  0.18335322    -0.55700
O146        O  0.89450605  0.53150591  0.18342637    -0.46600
C147        C  0.97060707  0.67867362  0.19453765     0.75400
O148        O  0.01085913  0.67283170  0.18197730    -0.41500
C149        C  0.88250074  0.54875324  0.08947104     0.80100
O150        O  0.01842534  0.65445549  0.09253132    -0.53300
O151        O  0.90493584  0.52613998  0.10782751    -0.43400
O152        O  0.03134209  0.59292409  0.12054761    -0.49800
C153        C  0.93011756  0.52012949  0.19581340     0.90300
O154        O  0.92572755  0.65053699  0.17682630    -0.51700
O155        O  0.89791429  0.59886765  0.09873838    -0.55000
In156      In  0.95688162  0.33567657  0.14318893     1.36900
C157        C  0.88125227  0.31355287  0.08973566     0.82700
O158        O  0.89368899  0.34130275  0.18418518    -0.55700
O159        O  0.97936871  0.40722662  0.18291698    -0.46600
C160        C  0.96730439  0.26970071  0.19500758     0.75400
O161        O  0.92310428  0.25264813  0.17645890    -0.41500
C162        C  0.04511909  0.39410537  0.09345147     0.80100
O163        O  0.89555389  0.27808713  0.09882891    -0.53300
O164        O  0.03081175  0.41658944  0.12035651    -0.43400
O165        O  0.90453287  0.35864546  0.10826044    -0.49800
C166        C  0.92955791  0.38900163  0.19593812     0.90300
O167        O  0.00778798  0.31659219  0.18324491    -0.51700
O168        O  0.01650504  0.34102442  0.09321280    -0.55000
C169        C  0.91466769  0.46870748  0.21615758    -0.08100
C170        C  0.91450261  0.42513236  0.21620823    -0.09700
C171        C  0.96863395  0.24451478  0.23185597    -0.08100
C172        C  0.97005943  0.24445766  0.26747430    -0.09700
C173        C  0.97451959  0.70694468  0.26703607    -0.08100
C174        C  0.97296559  0.70550505  0.23141942    -0.09700
C175        C  0.01034006  0.51648333  0.28223330    -0.08100
C176        C  0.01000639  0.47284696  0.28229004    -0.09700
C177        C  0.58254104  0.16014045  0.50365842    -0.08100
C178        C  0.53847876  0.16015935  0.50579647    -0.09700
C179        C  0.49018693  0.21342535  0.00968733    -0.08100
C180        C  0.49030633  0.25738502  0.00954503    -0.09700
C181        C  0.53914142  0.35943523  0.00516478    -0.08100
C182        C  0.58346507  0.40373985  0.00290252    -0.09700
C183        C  0.81456360  0.30502293  0.03319824    -0.08100
C184        C  0.84274136  0.30521111  0.05964474    -0.09700
C185        C  0.81716591  0.30670999  0.46303289    -0.08100
C186        C  0.84823721  0.30838045  0.43608055    -0.09700
C187        C  0.68448992  0.21368230  0.50073802    -0.08100
C188        C  0.72859697  0.25768464  0.49977006    -0.09700
C189        C  0.81514596  0.49119005  0.03292028    -0.08100
C190        C  0.84365693  0.51903475  0.05937791    -0.09700
C191        C  0.84946470  0.52131222  0.43582981    -0.08100
C192        C  0.81798056  0.49201996  0.46277860    -0.09700
C193        C  0.72926645  0.45243814  0.99930437    -0.08100
C194        C  0.68544737  0.45247472  0.00008322    -0.09700
C195        C  0.78228005  0.35969711  0.99887157    -0.08100
C196        C  0.78228868  0.40383243  0.99878095    -0.09700
C197        C  0.42211760  0.09272587  0.07130955    -0.08100
C198        C  0.45096752  0.12442317  0.04438068    -0.09700
C199        C  0.42484863  0.92372055  0.21670113    -0.08100
C200        C  0.46849233  0.92412872  0.21464405    -0.09700
C201        C  0.63556742  0.12458105  0.03548169    -0.08100
C202        C  0.63410643  0.09330842  0.06119471    -0.09700
C203        C  0.23792516  0.97292218  0.27694559    -0.08100
C204        C  0.23798902  0.97074190  0.24129476    -0.09700
C205        C  0.42264555  0.09964913  0.44771049    -0.08100
C206        C  0.45072308  0.12763879  0.47430061    -0.09700
C207        C  0.70113516  0.97709126  0.22308107    -0.08100
C208        C  0.70109881  0.97927081  0.25872750    -0.09700
C209        C  0.46764562  0.02058534  0.28422991    -0.08100
C210        C  0.51127645  0.02101715  0.28197900    -0.09700
C211        C  0.63680911  0.12826596  0.46536150    -0.08100
C212        C  0.63669090  0.10068798  0.43753976    -0.09700
C213        C  0.11967153  0.45618814  0.03654180    -0.08100
C214        C  0.08836379  0.42727881  0.06369548    -0.09700
C215        C  0.12209311  0.45619780  0.46634539    -0.08100
C216        C  0.09368981  0.42807930  0.43992414    -0.09700
C217        C  0.08907138  0.63861519  0.06353549    -0.08100
C218        C  0.12016516  0.64068157  0.03645879    -0.09700
C219        C  0.09495258  0.64357632  0.43978329    -0.08100
C220        C  0.12293322  0.64337550  0.46624909    -0.09700
C221        C  0.15489202  0.58806507  0.00008620    -0.08100
C222        C  0.15477767  0.54388865  0.00009220    -0.09700
C223        C  0.25230615  0.49638586  0.49886742    -0.08100
C224        C  0.20823152  0.49589835  0.99973762    -0.09700
C225        C  0.39882404  0.58949877  0.49388191    -0.08100
C226        C  0.35438462  0.54531398  0.49601705    -0.09700
C227        C  0.48733269  0.82096245  0.02564261    -0.08100
C228        C  0.51559189  0.84881902  0.05220991    -0.09700
C229        C  0.51546462  0.85592679  0.42856693    -0.08100
C230        C  0.48674727  0.82435430  0.45557894    -0.09700
C231        C  0.44791086  0.73538046  0.49006878    -0.08100
C232        C  0.44786292  0.69147501  0.48997025    -0.09700
C233        C  0.30032233  0.81952148  0.03447983    -0.08100
C234        C  0.30039603  0.84727475  0.06217598    -0.09700
C235        C  0.30198548  0.82316852  0.46437595    -0.08100
C236        C  0.30364845  0.85454127  0.43866367    -0.09700
C237        C  0.25301371  0.73402554  0.49906996    -0.08100
C238        C  0.20886046  0.69005463  0.49985424    -0.09700
C239        C  0.35505474  0.78791861  0.49645009    -0.08100
C240        C  0.39930639  0.78826318  0.49433370    -0.09700
C241        C  0.42301247  0.30999209  0.07101321    -0.08100
C242        C  0.45177897  0.30739289  0.04406318    -0.09700
C243        C  0.29993459  0.43102919  0.06189707    -0.08100
C244        C  0.29961732  0.45856940  0.03418601    -0.09700
C245        C  0.46799276  0.52464294  0.21440067    -0.08100
C246        C  0.42417054  0.48112126  0.21652797    -0.09700
C247        C  0.51483962  0.64549970  0.05200780    -0.08100
C248        C  0.48674036  0.64506998  0.02540999    -0.09700
C249        C  0.63521024  0.52227626  0.06049951    -0.08100
C250        C  0.63693028  0.49270280  0.03472382    -0.09700
C251        C  0.23826523  0.24189505  0.27651024    -0.08100
C252        C  0.23863706  0.24432303  0.24084406    -0.09700
C253        C  0.42261906  0.30285217  0.44755427    -0.08100
C254        C  0.45096698  0.30338865  0.47402095    -0.09700
C255        C  0.30092621  0.45646184  0.46409592    -0.08100
C256        C  0.30255208  0.42678483  0.43838286    -0.09700
C257        C  0.70133546  0.70535850  0.22245833    -0.08100
C258        C  0.70144828  0.70364529  0.25811357    -0.09700
C259        C  0.46658780  0.42727073  0.28406111    -0.08100
C260        C  0.51025627  0.47090729  0.28171832    -0.09700
C261        C  0.51532877  0.63927555  0.42829044    -0.08100
C262        C  0.48651834  0.64169501  0.45529512    -0.09700
C263        C  0.63797769  0.51787836  0.43681452    -0.08100
C264        C  0.63827062  0.49039484  0.46458667    -0.09700
In265      In  0.60717970  0.60080736  0.84996993     1.36900
C266        C  0.62968906  0.54765739  0.90535479     0.82700
O267        O  0.60156513  0.65481813  0.89814256    -0.55700
O268        O  0.52615108  0.59247515  0.87330725    -0.46600
C269        C  0.67626508  0.67687250  0.79588448     0.75400
O270        O  0.68858639  0.64405315  0.81281700    -0.41500
C271        C  0.54931540  0.52154419  0.79984157     0.80100
O272        O  0.66415726  0.59836252  0.89533195    -0.53300
O273        O  0.53550419  0.55679252  0.81084782    -0.43400
O274        O  0.58553071  0.52461673  0.88658470    -0.49800
C275        C  0.54852699  0.62957795  0.89887796     0.90300
O276        O  0.63307847  0.67604938  0.81028723    -0.51700
O277        O  0.59501244  0.52909962  0.81207841    -0.55000
In278      In  0.33896463  0.33281511  0.86272104     1.36900
C279        C  0.39243888  0.31068168  0.91693855     0.82700
O280        O  0.40949168  0.34370734  0.82120986    -0.55700
O281        O  0.38256238  0.40388400  0.81902441    -0.46600
C282        C  0.26319370  0.26493681  0.81337604     0.75400
O283        O  0.29523635  0.25164396  0.82967561    -0.41500
C284        C  0.31156303  0.39281783  0.91011483     0.80100
O285        O  0.34156188  0.27625693  0.91041055    -0.53300
O286        O  0.34891621  0.41458745  0.88257091    -0.43400
O287        O  0.41539929  0.35445219  0.89533432    -0.49800
C288        C  0.41693846  0.38924762  0.80673012     0.90300
O289        O  0.26384903  0.30778418  0.82688630    -0.51700
O290        O  0.28541185  0.33967790  0.91229519    -0.55000
In291      In  0.59840012  0.61544889  0.63676760     1.36900
C292        C  0.62610185  0.55599559  0.58896494     0.82700
O293        O  0.55072627  0.54388097  0.67944541    -0.55700
O294        O  0.52961470  0.60847799  0.67862807    -0.46600
C295        C  0.67546149  0.68158160  0.68600700     0.75400
O296        O  0.67068975  0.63608052  0.67439144    -0.41500
C297        C  0.54491347  0.63764661  0.58266991     0.80100
O298        O  0.65162134  0.60910256  0.58668627    -0.53300
O299        O  0.52205380  0.59362305  0.60401358    -0.43400
O300        O  0.58928471  0.53400168  0.61682806    -0.49800
C301        C  0.51873850  0.56125033  0.69220502     0.90300
O302        O  0.64670943  0.69772972  0.66813421    -0.51700
O303        O  0.59564826  0.67228868  0.58944158    -0.55000
In304      In  0.33098175  0.34869050  0.64893584     1.36900
C305        C  0.30843431  0.40137655  0.59331195     0.82700
O306        O  0.33986415  0.41974152  0.68648115    -0.55700
O307        O  0.40236129  0.39600606  0.68764988    -0.46600
C308        C  0.26379509  0.27165472  0.70319198     0.75400
O309        O  0.24886669  0.30170428  0.68523150    -0.41500
C310        C  0.38969205  0.31975240  0.60026542     0.80100
O311        O  0.27322725  0.35126365  0.60431476    -0.53300
O312        O  0.41192823  0.35627231  0.62623062    -0.43400
O313        O  0.35344812  0.42398596  0.61111823    -0.49800
C314        C  0.38646881  0.42970673  0.69855303     0.90300
O315        O  0.30893895  0.27571227  0.68982210    -0.51700
O316        O  0.33671277  0.29516274  0.60046574    -0.55000
C317        C  0.30277037  0.79062516  0.99856222     0.02700
C318        C  0.45465579  0.79172583  0.99137251     0.02700
C319        C  0.45433830  0.64177665  0.99108647     0.02700
C320        C  0.30196081  0.48989135  0.99826008     0.02700
C321        C  0.15221945  0.64039166  0.00066530     0.02700
C322        C  0.15172811  0.48868521  0.50068156     0.02700
In323      In  0.60695056  0.98746011  0.85040448     1.36900
C324        C  0.62876284  0.06283741  0.90597548     0.82700
O325        O  0.59577044  0.04758125  0.81249796    -0.55700
O326        O  0.53548483  0.95994481  0.81126333    -0.46600
C327        C  0.67573615  0.98066474  0.79639797     0.75400
O328        O  0.68879865  0.02585518  0.81371589    -0.41500
C329        C  0.54855742  0.89925575  0.89918901     0.80100
O330        O  0.66371676  0.04769050  0.89571723    -0.53300
O331        O  0.52608604  0.91355543  0.87355793    -0.43400
O332        O  0.58448473  0.04082950  0.88733203    -0.49800
C333        C  0.54989527  0.00930957  0.80022406     0.90300
O334        O  0.63186240  0.93812829  0.81035177    -0.51700
O335        O  0.60157638  0.92788527  0.89856132    -0.55000
In336      In  0.33969068  0.98513240  0.86282609     1.36900
C337        C  0.31255579  0.89758156  0.91036256     0.82700
O338        O  0.38369733  0.95865037  0.81911723    -0.55700
O339        O  0.41010563  0.04590821  0.82133911    -0.46600
C340        C  0.26337095  0.97555170  0.81366005     0.75400
O341        O  0.26445303  0.93362578  0.82725458    -0.41500
C342        C  0.39276427  0.06134784  0.91703381     0.80100
O343        O  0.28643631  0.92431589  0.91259147    -0.53300
O344        O  0.41573053  0.04036428  0.89589318    -0.43400
O345        O  0.34974952  0.91347436  0.88271193    -0.49800
C346        C  0.41787037  0.00811267  0.80685608     0.91500
O347        O  0.29539027  0.02143936  0.82971995    -0.51700
O348        O  0.34211999  0.04476256  0.91002575    -0.55000
In349      In  0.59855503  0.96304991  0.63720422     1.36900
C350        C  0.62548215  0.05044605  0.58956571     0.82700
O351        O  0.59610919  0.90334089  0.59004060    -0.55700
O352        O  0.52266424  0.90815023  0.60398900    -0.46600
C353        C  0.67543428  0.97425993  0.68645381     0.75400
O354        O  0.67240814  0.01546175  0.67365262    -0.41500
C355        C  0.51906361  0.93782785  0.69258403     0.80100
O356        O  0.65126274  0.02339542  0.58706568    -0.53300
O357        O  0.52838273  0.90088804  0.67835818    -0.43400
O358        O  0.58884690  0.03501655  0.61756712    -0.49800
C359        C  0.54553750  0.88700985  0.58292183     0.90300
O360        O  0.64506430  0.92850682  0.66965338    -0.51700
O361        O  0.55252036  0.98758193  0.68054045    -0.55000
In362      In  0.33065419  0.96077300  0.64922115     1.36900
C363        C  0.30857033  0.88539106  0.59360713     0.82700
O364        O  0.33597671  0.02003677  0.60080399    -0.55700
O365        O  0.41135096  0.03529294  0.62649435    -0.46600
C366        C  0.26314064  0.96911112  0.70358457     0.75400
O367        O  0.24854131  0.92405929  0.68561007    -0.41500
C368        C  0.38686012  0.93667077  0.69876298     0.80100
O369        O  0.27329249  0.89991346  0.60438331    -0.53300
O370        O  0.40243347  0.98630924  0.68769463    -0.43400
O371        O  0.35337445  0.90818744  0.61165104    -0.49800
C372        C  0.38894627  0.04920949  0.60056938     0.90300
O373        O  0.30805260  0.01093870  0.69017150    -0.51700
O374        O  0.34022952  0.89926050  0.68690372    -0.55000
C375        C  0.78559155  0.45917781  0.49842987     0.02700
C376        C  0.78514503  0.30745206  0.49869983     0.02700
C377        C  0.48372038  0.30704341  0.50823280     0.02700
C378        C  0.63589247  0.45916501  0.50059846     0.02700
C379        C  0.63466203  0.15716224  0.00135721     0.02700
C380        C  0.48325680  0.15696143  0.00859764     0.02700
In381      In  0.98069944  0.61375813  0.85636116     1.36900
C382        C  0.05670567  0.63570359  0.90957977     0.82700
O383        O  0.92057784  0.60791019  0.90616493    -0.55700
O384        O  0.90774473  0.53250692  0.87955923    -0.46600
C385        C  0.97534391  0.68285104  0.80451517     0.75400
O386        O  0.02040728  0.69509143  0.82048976    -0.41500
C387        C  0.00000111  0.55559568  0.80287066     0.80100
O388        O  0.04062067  0.67019568  0.90188785    -0.53300
O389        O  0.95110177  0.54221398  0.81546759    -0.43400
O390        O  0.03529958  0.59188266  0.88960792    -0.49800
C391        C  0.89273211  0.55477329  0.90617695     0.90300
O392        O  0.93223714  0.64024179  0.81925774    -0.51700
O393        O  0.03911169  0.60086861  0.81553415    -0.55000
In394      In  0.97852514  0.34501990  0.85656336     1.36900
C395        C  0.05501943  0.39812651  0.90976617     0.82700
O396        O  0.03776464  0.41709963  0.81612602    -0.55700
O397        O  0.94989724  0.38710586  0.81518177    -0.46600
C398        C  0.97172638  0.26976620  0.80490758     0.75400
O399        O  0.01724290  0.30343235  0.82019589    -0.41500
C400        C  0.89107470  0.31739434  0.90640735     0.80100
O401        O  0.03794774  0.34726426  0.90180313    -0.53300
O402        O  0.90676293  0.35468126  0.87956976    -0.43400
O403        O  0.03425662  0.42126424  0.89010172    -0.49800
C404        C  0.99904132  0.42309263  0.80299913     0.90300
O405        O  0.92893589  0.26885251  0.82024889    -0.51700
O406        O  0.91789305  0.29135747  0.90658517    -0.55000
In407      In  0.95851213  0.60130159  0.64296279     1.36900
C408        C  0.04617484  0.62941431  0.59321646     0.82700
O409        O  0.98016756  0.55240207  0.68335314    -0.55700
O410        O  0.89450606  0.53150605  0.68342650    -0.46600
C411        C  0.97060678  0.67867361  0.69453752     0.75400
O412        O  0.01085906  0.67283177  0.68197734    -0.41500
C413        C  0.88250105  0.54875352  0.58947120     0.80100
O414        O  0.01842540  0.65445560  0.59253134    -0.53300
O415        O  0.90493589  0.52614001  0.60782750    -0.43400
O416        O  0.03134216  0.59292416  0.62054761    -0.49800
C417        C  0.93011719  0.52012949  0.69581323     0.90300
O418        O  0.92572749  0.65053702  0.67682630    -0.51700
O419        O  0.89791444  0.59886771  0.59873828    -0.55000
In420      In  0.95688167  0.33567657  0.64318894     1.36900
C421        C  0.88125230  0.31355295  0.58973563     0.82700
O422        O  0.89368897  0.34130273  0.68418526    -0.55700
O423        O  0.97936864  0.40722657  0.68291703    -0.46600
C424        C  0.96730432  0.26970075  0.69500759     0.75400
O425        O  0.92310429  0.25264807  0.67645895    -0.41500
C426        C  0.04511919  0.39410530  0.59345140     0.80100
O427        O  0.89555384  0.27808713  0.59882886    -0.53300
O428        O  0.03081176  0.41658942  0.62035659    -0.43400
O429        O  0.90453296  0.35864548  0.60826049    -0.49800
C430        C  0.92955816  0.38900178  0.69593805     0.90300
O431        O  0.00778796  0.31659220  0.68324494    -0.51700
O432        O  0.01650503  0.34102432  0.59321283    -0.55000
C433        C  0.91466761  0.46870733  0.71615754    -0.08100
C434        C  0.91450262  0.42513258  0.71620823    -0.09700
C435        C  0.96863406  0.24451485  0.73185610    -0.08100
C436        C  0.97005926  0.24445765  0.76747425    -0.09700
C437        C  0.97451949  0.70694473  0.76703599    -0.08100
C438        C  0.97296554  0.70550509  0.73141965    -0.09700
C439        C  0.01033991  0.51648319  0.78223322    -0.08100
C440        C  0.01000625  0.47284704  0.78229002    -0.09700
C441        C  0.58254073  0.16014043  0.00365845    -0.08100
C442        C  0.53847890  0.16015930  0.00579645    -0.09700
C443        C  0.49018694  0.21342550  0.50968730    -0.08100
C444        C  0.49030635  0.25738510  0.50954499    -0.09700
C445        C  0.53914131  0.35943521  0.50516481    -0.08100
C446        C  0.58346512  0.40373985  0.50290247    -0.09700
C447        C  0.81456364  0.30502307  0.53319819    -0.08100
C448        C  0.84274149  0.30521131  0.55964476    -0.09700
C449        C  0.81716569  0.30670991  0.96303302    -0.08100
C450        C  0.84823730  0.30838051  0.93608041    -0.09700
C451        C  0.68448975  0.21368211  0.00073802    -0.08100
C452        C  0.72859698  0.25768471  0.99977004    -0.09700
C453        C  0.81514620  0.49119019  0.53292039    -0.08100
C454        C  0.84365680  0.51903440  0.55937773    -0.09700
C455        C  0.84946474  0.52131233  0.93582971    -0.08100
C456        C  0.81798050  0.49201977  0.96277865    -0.09700
C457        C  0.72926654  0.45243805  0.49930434    -0.08100
C458        C  0.68544744  0.45247492  0.50008324    -0.09700
C459        C  0.78228008  0.35969731  0.49887159    -0.08100
C460        C  0.78228859  0.40383225  0.49878091    -0.09700
C461        C  0.42211792  0.09272619  0.57130935    -0.08100
C462        C  0.45096732  0.12442311  0.54438099    -0.09700
C463        C  0.42484858  0.92372062  0.71670117    -0.08100
C464        C  0.46849246  0.92412871  0.71464400    -0.09700
C465        C  0.63556757  0.12458125  0.53548159    -0.08100
C466        C  0.63410655  0.09330832  0.56119474    -0.09700
C467        C  0.23792515  0.97292207  0.77694561    -0.08100
C468        C  0.23798896  0.97074175  0.74129483    -0.09700
C469        C  0.42264554  0.09964915  0.94771071    -0.08100
C470        C  0.45072283  0.12763839  0.97430053    -0.09700
C471        C  0.70113511  0.97709105  0.72308103    -0.08100
C472        C  0.70109883  0.97927062  0.75872755    -0.09700
C473        C  0.46764525  0.02058531  0.78422991    -0.08100
C474        C  0.51127676  0.02101733  0.78197896    -0.09700
C475        C  0.63680904  0.12826568  0.96536147    -0.08100
C476        C  0.63669082  0.10068790  0.93753974    -0.09700
C477        C  0.11967166  0.45618834  0.53654177    -0.08100
C478        C  0.08836366  0.42727872  0.56369558    -0.09700
C479        C  0.12209310  0.45619760  0.96634538    -0.08100
C480        C  0.09368960  0.42807902  0.93992420    -0.09700
C481        C  0.08907151  0.63861522  0.56353532    -0.08100
C482        C  0.12016502  0.64068158  0.53645889    -0.09700
C483        C  0.09495261  0.64357631  0.93978330    -0.08100
C484        C  0.12293312  0.64337537  0.96624909    -0.09700
C485        C  0.15489213  0.58806512  0.50008616    -0.08100
C486        C  0.15477783  0.54388866  0.50009224    -0.09700
C487        C  0.25230603  0.49638582  0.99886740    -0.08100
C488        C  0.20823174  0.49589848  0.49973767    -0.09700
C489        C  0.39882392  0.58949869  0.99388188    -0.08100
C490        C  0.35438462  0.54531393  0.99601704    -0.09700
C491        C  0.48733281  0.82096258  0.52564257    -0.08100
C492        C  0.51559199  0.84881914  0.55220992    -0.09700
C493        C  0.51546468  0.85592691  0.92856673    -0.08100
C494        C  0.48674698  0.82435391  0.95557898    -0.09700
C495        C  0.44791104  0.73538030  0.99006887    -0.08100
C496        C  0.44786288  0.69147521  0.98997031    -0.09700
C497        C  0.30032228  0.81952153  0.53447975    -0.08100
C498        C  0.30039584  0.84727475  0.56217602    -0.09700
C499        C  0.30198544  0.82316865  0.96437581    -0.08100
C500        C  0.30364826  0.85454090  0.93866381    -0.09700
C501        C  0.25301389  0.73402568  0.99906991    -0.08100
C502        C  0.20886026  0.69005427  0.99985420    -0.09700
C503        C  0.35505468  0.78791855  0.99645008    -0.08100
C504        C  0.39930632  0.78826313  0.99433372    -0.09700
C505        C  0.42301237  0.30999221  0.57101325    -0.08100
C506        C  0.45177913  0.30739308  0.54406304    -0.09700
C507        C  0.29993471  0.43102925  0.56189710    -0.08100
C508        C  0.29961736  0.45856935  0.53418594    -0.09700
C509        C  0.46799285  0.52464308  0.71440060    -0.08100
C510        C  0.42417050  0.48112110  0.71652796    -0.09700
C511        C  0.51483947  0.64549967  0.55200763    -0.08100
C512        C  0.48674051  0.64507004  0.52541012    -0.09700
C513        C  0.63521041  0.52227606  0.56049930    -0.08100
C514        C  0.63693028  0.49270306  0.53472390    -0.09700
C515        C  0.23826528  0.24189511  0.77650997    -0.08100
C516        C  0.23863687  0.24432309  0.74084437    -0.09700
C517        C  0.42261892  0.30285200  0.94755426    -0.08100
C518        C  0.45096704  0.30338869  0.97402101    -0.09700
C519        C  0.30092623  0.45646213  0.96409613    -0.08100
C520        C  0.30255200  0.42678461  0.93838277    -0.09700
C521        C  0.70133550  0.70535859  0.72245841    -0.08100
C522        C  0.70144834  0.70364531  0.75811339    -0.09700
C523        C  0.46658809  0.42727104  0.78406108    -0.08100
C524        C  0.51025606  0.47090712  0.78171838    -0.09700
C525        C  0.51532878  0.63927549  0.92829052    -0.08100
C526        C  0.48651834  0.64169509  0.95529519    -0.09700
C527        C  0.63797782  0.51787848  0.93681453    -0.08100
C528        C  0.63827059  0.49039488  0.96458659    -0.09700
loop_ 
_geom_bond_atom_site_label_1 
_geom_bond_atom_site_label_2 
_geom_bond_distance 
_geom_bond_site_symmetry_2 
_ccdc_geom_bond_type 
In1           O3   2.258       .  S
In1           O4   2.237       .  S
In1          O12   2.241       .  S
In1           O6   2.258       .  S
In1           O8   2.267       .  S
In1           O9   2.222       .  S
In1          O10   2.227       .  S
In1          O13   2.241       .  S
C2            O8   1.265       .  A
C2           O10   1.256       .  A
C2          C263   1.437       .  S
O3           C11   1.264       .  A
O4           C11   1.258       .  A
C5           O12   1.257       .  A
C5            O6   1.259       .  A
C5          C258   1.436       .  S
C7            O9   1.260       .  A
C7           O13   1.259       .  A
C7          C260   1.422       .  S
C11         C261   1.438       .  S
In14         O16   2.241       .  S
In14         O17   2.220       .  S
In14         O25   2.239       .  S
In14         O19   2.257       .  S
In14         O21   2.269       .  S
In14         O22   2.234       .  S
In14         O23   2.225       .  S
In14         O26   2.257       .  S
C15          O21   1.266       .  A
C15          O23   1.256       .  A
C15         C253   1.437       .  S
O16          C24   1.259       .  A
O17          C24   1.260       .  A
C18          O25   1.257       .  A
C18          O19   1.260       .  A
C18         C251   1.436       .  S
C20          O22   1.258       .  A
C20          O26   1.264       .  A
C20         C256   1.437       .  S
C24         C259   1.422       .  S
In27         O29   2.217       .  S
In27         O30   2.246       .  S
In27         O38   2.261       .  S
In27         O32   2.235       .  S
In27         O34   2.258       .  S
In27         O35   2.225       .  S
In27         O36   2.235       .  S
In27         O39   2.268       .  S
C28          O34   1.264       .  A
C28          O36   1.258       .  A
C28         C249   1.437       .  S
O29          C37   1.260       .  A
O30          C37   1.259       .  A
C31          O38   1.261       .  A
C31          O32   1.257       .  A
C31         C257   1.435       .  S
C33          O35   1.256       .  A
C33          O39   1.266       .  A
C33         C247   1.437       .  S
C37         C245   1.423       .  S
In40         O42   2.246       .  S
In40         O43   2.219       .  S
In40         O51   2.238       .  S
In40         O45   2.262       .  S
In40         O47   2.267       .  S
In40         O48   2.237       .  S
In40         O49   2.225       .  S
In40         O52   2.257       .  S
C41          O47   1.266       .  A
C41          O49   1.256       .  A
C41         C243   1.436       .  S
O42          C50   1.259       .  A
O43          C50   1.259       .  A
C44          O51   1.257       .  A
C44          O45   1.260       .  A
C44         C252   1.437       .  S
C46          O48   1.258       .  A
C46          O52   1.264       .  A
C46         C241   1.437       .  S
C50         C246   1.423       .  S
C53         C235   1.469       .  S
C53         C237   1.468       .  S
C53         C239   1.481       .  S
C53         C497   1.469       .  S
C54         C230   1.469       .  S
C54         C231   1.468       .  S
C54         C240   1.481       .  S
C54         C491   1.470       .  S
C55         C225   1.480       .  S
C55         C232   1.468       .  S
C55         C262   1.470       .  S
C55         C512   1.470       .  S
C56         C223   1.468       .  S
C56         C226   1.480       .  S
C56         C255   1.469       .  S
C56         C508   1.469       .  S
C57         C220   1.470       .  S
C57         C238   1.468       .  S
C57         C482   1.470       .  S
C57         C485   1.480       .  S
C58         C213   1.470       .  S
C58         C222   1.480       .  S
C58         C224   1.468   1_554  S
C58         C479   1.470   1_554  S
In59         O61   2.242   1_565  S
In59         O62   2.220       .  S
In59         O70   2.239       .  S
In59         O64   2.260   1_565  S
In59         O66   2.266   1_565  S
In59         O67   2.236       .  S
In59         O68   2.226   1_565  S
In59         O71   2.257       .  S
C60          O66   1.266       .  A
C60          O68   1.256       .  A
C60         C212   1.436       .  S
O61          C69   1.259       .  A
O62          C69   1.260   1_565  A
C63          O70   1.257       .  A
C63          O64   1.260   1_565  A
C63         C208   1.436       .  S
C65          O67   1.258       .  A
C65          O71   1.263       .  A
C65         C229   1.437       .  S
C69         C210   1.422       .  S
In72         O74   2.220       .  S
In72         O75   2.242   1_565  S
In72         O83   2.257   1_565  S
In72         O77   2.239       .  S
In72         O79   2.257       .  S
In72         O80   2.225   1_565  S
In72         O81   2.234       .  S
In72         O84   2.268   1_565  S
C73          O79   1.264       .  A
C73          O81   1.258       .  A
C73         C236   1.437       .  S
O74          C82   1.260   1_565  A
O75          C82   1.259       .  A
C76          O83   1.260   1_565  A
C76          O77   1.257       .  A
C76         C203   1.436       .  S
C78          O80   1.256       .  A
C78          O84   1.266       .  A
C78         C205   1.437       .  S
C82         C209   1.422       .  S
In85         O87   2.269       .  S
In85         O88   2.223       .  S
In85         O96   2.260       .  S
In85         O90   2.237   1_565  S
In85         O92   2.257   1_565  S
In85         O93   2.244       .  S
In85         O94   2.234   1_565  S
In85         O97   2.218       .  S
C86          O92   1.264       .  A
C86          O94   1.258       .  A
C86         C202   1.437       .  S
O87          C95   1.266       .  A
O88          C95   1.256       .  A
C89          O96   1.260       .  A
C89          O90   1.257   1_565  A
C89         C207   1.436       .  S
C91          O93   1.259       .  A
C91          O97   1.260       .  A
C91         C200   1.423       .  S
C95         C228   1.437       .  S
In98        O100   2.258   1_565  S
In98        O101   2.237   1_565  S
In98        O109   2.238   1_565  S
In98        O103   2.262       .  S
In98        O105   2.268       .  S
In98        O106   2.219       .  S
In98        O107   2.225       .  S
In98        O110   2.245       .  S
C99         O105   1.266       .  A
C99         O107   1.256       .  A
C99         C234   1.436       .  S
O100        C108   1.264       .  A
O101        C108   1.258       .  A
C102        O109   1.257   1_565  A
C102        O103   1.260       .  A
C102        C204   1.436       .  S
C104        O106   1.260       .  A
C104        O110   1.259       .  A
C104        C199   1.423       .  S
C108        C197   1.438       .  S
C111        C189   1.469   1_556  S
C111        C193   1.468       .  S
C111        C196   1.480       .  S
C111        C456   1.470       .  S
C112        C183   1.469   1_556  S
C112        C195   1.480       .  S
C112        C449   1.470       .  S
C112        C452   1.467       .  S
C113        C180   1.468       .  S
C113        C181   1.480       .  S
C113        C242   1.470       .  S
C113        C518   1.470   1_554  S
C114        C182   1.480       .  S
C114        C194   1.468       .  S
C114        C250   1.470       .  S
C114        C528   1.470   1_554  S
C115        C177   1.480       .  S
C115        C187   1.467       .  S
C115        C211   1.469       .  S
C115        C465   1.470       .  S
C116        C178   1.480       .  S
C116        C206   1.470       .  S
C116        C443   1.468       .  S
C116        C462   1.470       .  S
In117       O119   2.259       .  S
In117       O120   2.235       .  S
In117       O128   2.240       .  S
In117       O122   2.257   1_655  S
In117       O124   2.268   1_655  S
In117       O125   2.221       .  S
In117       O126   2.226   1_655  S
In117       O129   2.239   1_655  S
C118        O124   1.266       .  A
C118        O126   1.256       .  A
C118        C219   1.437       .  S
O119        C127   1.264       .  A
O120        C127   1.258       .  A
C121        O128   1.257       .  A
C121        O122   1.260   1_655  A
C121        C173   1.436       .  S
C123        O125   1.260   1_455  A
C123        O129   1.259       .  A
C123        C175   1.422       .  S
C127        C191   1.437       .  S
In130       O132   2.239   1_655  S
In130       O133   2.223       .  S
In130       O141   2.242       .  S
In130       O135   2.255   1_655  S
In130       O137   2.268   1_655  S
In130       O138   2.235       .  S
In130       O139   2.225   1_655  S
In130       O142   2.259       .  S
C131        O137   1.266       .  A
C131        O139   1.256       .  A
C131        C216   1.437       .  S
O132        C140   1.259   1_455  A
O133        C140   1.260       .  A
C134        O141   1.257       .  A
C134        O135   1.259   1_655  A
C134        C172   1.436       .  S
C136        O138   1.258       .  A
C136        O142   1.264       .  A
C136        C186   1.438       .  S
C140        C176   1.422   1_655  S
In143       O145   2.217       .  S
In143       O146   2.247       .  S
In143       O154   2.262       .  S
In143       O148   2.236   1_655  S
In143       O150   2.257   1_655  S
In143       O151   2.224       .  S
In143       O152   2.237   1_655  S
In143       O155   2.266       .  S
C144        O150   1.264       .  A
C144        O152   1.258       .  A
C144        C217   1.438       .  S
O145        C153   1.260       .  A
O146        C153   1.259       .  A
C147        O154   1.260       .  A
C147        O148   1.257   1_655  A
C147        C174   1.436       .  S
C149        O151   1.256       .  A
C149        O155   1.266       .  A
C149        C190   1.436       .  S
C153        C169   1.423       .  S
In156       O158   2.247       .  S
In156       O159   2.216       .  S
In156       O167   2.234   1_655  S
In156       O161   2.263       .  S
In156       O163   2.267       .  S
In156       O164   2.236   1_655  S
In156       O165   2.224       .  S
In156       O168   2.258   1_655  S
C157        O163   1.266       .  A
C157        O165   1.256       .  A
C157        C184   1.436       .  S
O158        C166   1.259       .  A
O159        C166   1.260       .  A
C160        O167   1.257   1_655  A
C160        O161   1.261       .  A
C160        C171   1.436       .  S
C162        O164   1.258       .  A
C162        O168   1.264       .  A
C162        C214   1.438       .  S
C166        C170   1.423       .  S
C169        C170   1.198       .  T
C171        C172   1.206       .  T
C173        C174   1.206       .  T
C175        C176   1.197       .  T
C177        C178   1.215       .  T
C179        C380   1.468       .  S
C179        C180   1.209       .  T
C181        C182   1.215       .  T
C183        C184   1.208       .  T
C185        C376   1.470       .  S
C185        C186   1.208       .  T
C187        C188   1.208       .  T
C188        C376   1.467       .  S
C189        C190   1.208       .  T
C191        C192   1.208       .  T
C192        C375   1.470       .  S
C193        C194   1.209   1_556  T
C195        C196   1.215       .  T
C197        C198   1.208       .  T
C198        C380   1.470       .  S
C199        C200   1.198       .  T
C201        C379   1.470       .  S
C201        C202   1.208       .  T
C203        C204   1.206       .  T
C205        C206   1.208       .  T
C207        C208   1.206       .  T
C209        C210   1.197       .  T
C211        C212   1.208       .  T
C213        C214   1.208       .  T
C215        C322   1.470       .  S
C215        C216   1.208       .  T
C217        C218   1.208       .  T
C218        C321   1.470       .  S
C219        C220   1.208       .  T
C221        C321   1.480       .  S
C221        C222   1.215       .  T
C223        C488   1.209       .  T
C224        C487   1.209       .  T
C225        C226   1.215       .  T
C227        C318   1.470   1_554  S
C227        C228   1.208       .  T
C229        C230   1.208       .  T
C231        C232   1.208       .  T
C233        C317   1.469   1_554  S
C233        C234   1.208       .  T
C235        C236   1.208       .  T
C237        C238   1.208       .  T
C239        C240   1.215       .  T
C241        C242   1.208       .  T
C243        C244   1.208       .  T
C244        C320   1.469   1_554  S
C245        C246   1.198       .  T
C247        C248   1.208       .  T
C248        C319   1.470   1_554  S
C249        C250   1.208       .  T
C251        C252   1.206       .  T
C253        C254   1.209       .  T
C254        C377   1.470       .  S
C255        C256   1.208       .  T
C257        C258   1.206       .  T
C259        C260   1.197       .  T
C261        C262   1.209       .  T
C263        C264   1.208       .  T
C264        C378   1.470       .  S
In265       O267   2.258       .  S
In265       O268   2.237       .  S
In265       O276   2.242       .  S
In265       O270   2.258       .  S
In265       O272   2.267       .  S
In265       O273   2.222       .  S
In265       O274   2.227       .  S
In265       O277   2.241       .  S
C266        O272   1.265       .  A
C266        O274   1.256       .  A
C266        C527   1.437       .  S
O267        C275   1.264       .  A
O268        C275   1.258       .  A
C269        O276   1.257       .  A
C269        O270   1.259       .  A
C269        C522   1.436       .  S
C271        O273   1.260       .  A
C271        O277   1.259       .  A
C271        C524   1.422       .  S
C275        C525   1.438       .  S
In278       O280   2.241       .  S
In278       O281   2.220       .  S
In278       O289   2.239       .  S
In278       O283   2.257       .  S
In278       O285   2.269       .  S
In278       O286   2.234       .  S
In278       O287   2.225       .  S
In278       O290   2.257       .  S
C279        O285   1.266       .  A
C279        O287   1.256       .  A
C279        C517   1.437       .  S
O280        C288   1.259       .  A
O281        C288   1.260       .  A
C282        O289   1.257       .  A
C282        O283   1.260       .  A
C282        C515   1.436       .  S
C284        O286   1.258       .  A
C284        O290   1.264       .  A
C284        C520   1.437       .  S
C288        C523   1.422       .  S
In291       O293   2.217       .  S
In291       O294   2.246       .  S
In291       O302   2.261       .  S
In291       O296   2.235       .  S
In291       O298   2.258       .  S
In291       O299   2.225       .  S
In291       O300   2.235       .  S
In291       O303   2.268       .  S
C292        O298   1.264       .  A
C292        O300   1.258       .  A
C292        C513   1.437       .  S
O293        C301   1.260       .  A
O294        C301   1.259       .  A
C295        O302   1.261       .  A
C295        O296   1.257       .  A
C295        C521   1.435       .  S
C297        O299   1.256       .  A
C297        O303   1.266       .  A
C297        C511   1.437       .  S
C301        C509   1.423       .  S
In304       O306   2.246       .  S
In304       O307   2.219       .  S
In304       O315   2.238       .  S
In304       O309   2.262       .  S
In304       O311   2.267       .  S
In304       O312   2.237       .  S
In304       O313   2.225       .  S
In304       O316   2.257       .  S
C305        O311   1.266       .  A
C305        O313   1.256       .  A
C305        C507   1.436       .  S
O306        C314   1.259       .  A
O307        C314   1.259       .  A
C308        O315   1.257       .  A
C308        O309   1.260       .  A
C308        C516   1.437       .  S
C310        O312   1.258       .  A
C310        O316   1.264       .  A
C310        C505   1.437       .  S
C314        C510   1.423       .  S
C317        C499   1.469       .  S
C317        C501   1.468       .  S
C317        C503   1.481       .  S
C318        C494   1.469       .  S
C318        C495   1.468       .  S
C318        C504   1.481       .  S
C319        C489   1.480       .  S
C319        C496   1.468       .  S
C319        C526   1.470       .  S
C320        C487   1.468       .  S
C320        C490   1.480       .  S
C320        C519   1.469       .  S
C321        C484   1.470   1_554  S
C321        C502   1.468   1_554  S
C322        C477   1.470       .  S
C322        C486   1.480       .  S
C322        C488   1.468       .  S
In323       O325   2.242   1_565  S
In323       O326   2.220       .  S
In323       O334   2.239       .  S
In323       O328   2.260   1_565  S
In323       O330   2.266   1_565  S
In323       O331   2.236       .  S
In323       O332   2.226   1_565  S
In323       O335   2.257       .  S
C324        O330   1.266       .  A
C324        O332   1.256       .  A
C324        C476   1.436       .  S
O325        C333   1.259       .  A
O326        C333   1.260   1_565  A
C327        O334   1.257       .  A
C327        O328   1.260   1_565  A
C327        C472   1.436       .  S
C329        O331   1.258       .  A
C329        O335   1.264       .  A
C329        C493   1.437       .  S
C333        C474   1.422       .  S
In336       O338   2.220       .  S
In336       O339   2.242   1_565  S
In336       O347   2.257   1_565  S
In336       O341   2.239       .  S
In336       O343   2.257       .  S
In336       O344   2.225   1_565  S
In336       O345   2.234       .  S
In336       O348   2.268   1_565  S
C337        O343   1.264       .  A
C337        O345   1.258       .  A
C337        C500   1.437       .  S
O338        C346   1.260   1_565  A
O339        C346   1.259       .  A
C340        O347   1.260   1_565  A
C340        O341   1.257       .  A
C340        C467   1.436       .  S
C342        O344   1.256       .  A
C342        O348   1.266       .  A
C342        C469   1.437       .  S
C346        C473   1.422       .  S
In349       O351   2.269       .  S
In349       O352   2.223       .  S
In349       O360   2.260       .  S
In349       O354   2.237   1_565  S
In349       O356   2.257   1_565  S
In349       O357   2.244       .  S
In349       O358   2.234   1_565  S
In349       O361   2.218       .  S
C350        O356   1.264       .  A
C350        O358   1.258       .  A
C350        C466   1.437       .  S
O351        C359   1.266       .  A
O352        C359   1.256       .  A
C353        O360   1.260       .  A
C353        O354   1.257   1_565  A
C353        C471   1.436       .  S
C355        O357   1.259       .  A
C355        O361   1.260       .  A
C355        C464   1.423       .  S
C359        C492   1.437       .  S
In362       O364   2.258   1_565  S
In362       O365   2.237   1_565  S
In362       O373   2.238   1_565  S
In362       O367   2.262       .  S
In362       O369   2.268       .  S
In362       O370   2.219       .  S
In362       O371   2.225       .  S
In362       O374   2.245       .  S
C363        O369   1.266       .  A
C363        O371   1.256       .  A
C363        C498   1.436       .  S
O364        C372   1.264       .  A
O365        C372   1.258       .  A
C366        O373   1.257   1_565  A
C366        O367   1.260       .  A
C366        C468   1.436       .  S
C368        O370   1.260       .  A
C368        O374   1.259       .  A
C368        C463   1.423       .  S
C372        C461   1.438       .  S
C375        C453   1.469       .  S
C375        C457   1.468       .  S
C375        C460   1.480       .  S
C376        C447   1.469       .  S
C376        C459   1.480       .  S
C377        C444   1.468       .  S
C377        C445   1.480       .  S
C377        C506   1.470       .  S
C378        C446   1.480       .  S
C378        C458   1.468       .  S
C378        C514   1.470       .  S
C379        C441   1.480       .  S
C379        C451   1.467       .  S
C379        C475   1.469   1_554  S
C380        C442   1.480       .  S
C380        C470   1.470   1_554  S
In381       O383   2.259       .  S
In381       O384   2.235       .  S
In381       O392   2.240       .  S
In381       O386   2.257   1_655  S
In381       O388   2.268   1_655  S
In381       O389   2.221       .  S
In381       O390   2.226   1_655  S
In381       O393   2.239   1_655  S
C382        O388   1.266       .  A
C382        O390   1.256       .  A
C382        C483   1.437       .  S
O383        C391   1.264       .  A
O384        C391   1.258       .  A
C385        O392   1.257       .  A
C385        O386   1.260   1_655  A
C385        C437   1.436       .  S
C387        O389   1.260   1_455  A
C387        O393   1.259       .  A
C387        C439   1.422       .  S
C391        C455   1.437       .  S
In394       O396   2.239   1_655  S
In394       O397   2.223       .  S
In394       O405   2.242       .  S
In394       O399   2.255   1_655  S
In394       O401   2.268   1_655  S
In394       O402   2.235       .  S
In394       O403   2.225   1_655  S
In394       O406   2.259       .  S
C395        O401   1.266       .  A
C395        O403   1.256       .  A
C395        C480   1.437       .  S
O396        C404   1.259   1_455  A
O397        C404   1.260       .  A
C398        O405   1.257       .  A
C398        O399   1.259   1_655  A
C398        C436   1.436       .  S
C400        O402   1.258       .  A
C400        O406   1.264       .  A
C400        C450   1.438       .  S
C404        C440   1.422   1_655  S
In407       O409   2.217       .  S
In407       O410   2.247       .  S
In407       O418   2.262       .  S
In407       O412   2.236   1_655  S
In407       O414   2.257   1_655  S
In407       O415   2.224       .  S
In407       O416   2.237   1_655  S
In407       O419   2.266       .  S
C408        O414   1.264       .  A
C408        O416   1.258       .  A
C408        C481   1.438       .  S
O409        C417   1.260       .  A
O410        C417   1.259       .  A
C411        O418   1.260       .  A
C411        O412   1.257   1_655  A
C411        C438   1.436       .  S
C413        O415   1.256       .  A
C413        O419   1.266       .  A
C413        C454   1.436       .  S
C417        C433   1.423       .  S
In420       O422   2.247       .  S
In420       O423   2.216       .  S
In420       O431   2.234   1_655  S
In420       O425   2.263       .  S
In420       O427   2.267       .  S
In420       O428   2.236   1_655  S
In420       O429   2.224       .  S
In420       O432   2.258   1_655  S
C421        O427   1.266       .  A
C421        O429   1.256       .  A
C421        C448   1.436       .  S
O422        C430   1.259       .  A
O423        C430   1.260       .  A
C424        O431   1.257   1_655  A
C424        O425   1.261       .  A
C424        C435   1.436       .  S
C426        O428   1.258       .  A
C426        O432   1.264       .  A
C426        C478   1.437       .  S
C430        C434   1.423       .  S
C433        C434   1.198       .  T
C435        C436   1.206       .  T
C437        C438   1.206       .  T
C439        C440   1.197       .  T
C441        C442   1.215       .  T
C443        C444   1.209       .  T
C445        C446   1.215       .  T
C447        C448   1.208       .  T
C449        C450   1.208       .  T
C451        C452   1.208   1_554  T
C453        C454   1.208       .  T
C455        C456   1.208       .  T
C457        C458   1.209       .  T
C459        C460   1.215       .  T
C461        C462   1.208       .  T
C463        C464   1.198       .  T
C465        C466   1.208       .  T
C467        C468   1.206       .  T
C469        C470   1.208       .  T
C471        C472   1.206       .  T
C473        C474   1.197       .  T
C475        C476   1.208       .  T
C477        C478   1.208       .  T
C479        C480   1.208       .  T
C481        C482   1.208       .  T
C483        C484   1.208       .  T
C485        C486   1.215       .  T
C489        C490   1.215       .  T
C491        C492   1.208       .  T
C493        C494   1.208       .  T
C495        C496   1.208       .  T
C497        C498   1.208       .  T
C499        C500   1.208       .  T
C501        C502   1.209       .  T
C503        C504   1.215       .  T
C505        C506   1.208       .  T
C507        C508   1.208       .  T
C509        C510   1.198       .  T
C511        C512   1.208       .  T
C513        C514   1.208       .  T
C515        C516   1.206       .  T
C517        C518   1.209       .  T
C519        C520   1.208       .  T
C521        C522   1.206       .  T
C523        C524   1.197       .  T
C525        C526   1.209       .  T
C527        C528   1.208       .  T
