geometry optimzed in LAMMPS
_audit_creation_date              2020-11-30 
_audit_creation_method            'lammps2cif' 
_symmetry_space_group_name_H-M    'P1' 
_symmetry_Int_Tables_number       1 
_symmetry_cell_setting            triclinic 
loop_ 
_symmetry_equiv_pos_as_xyz 
  x,y,z 
_cell_length_a                    43.16574909 
_cell_length_b                    43.16630396155693 
_cell_length_c                    43.16492724451874 
_cell_angle_alpha                 89.9739501314255 
_cell_angle_beta                  90.00909591449462 
_cell_angle_gamma                 90.01423131622965 
loop_ 
_atom_site_label 
_atom_site_type_symbol 
_atom_site_fract_x 
_atom_site_fract_y 
_atom_site_fract_z 
_atom_site_charge 
O1          O  0.72479920  0.75991210  0.80355447    -0.86500
C2          C  0.73514074  0.68018844  0.75485383     0.89600
Mg3        Mg  0.70230935  0.79966942  0.78456134     1.58100
O4          O  0.80317465  0.72400769  0.76138756    -0.86200
O5          O  0.77051382  0.74792538  0.82233460    -0.73500
C6          C  0.76125786  0.81425990  0.64232040     0.94600
O7          O  0.67977962  0.73032316  0.75276833    -0.73300
O8          O  0.73717047  0.82102955  0.65785748    -0.80800
Mg9        Mg  0.70081962  0.71658669  0.79976309     1.58000
C10         C  0.86000395  0.73967451  0.68691227     0.94500
O11         O  0.71789072  0.70058781  0.84812984    -0.79100
H12         H  0.83474254  0.74537766  0.78772757    -0.04400
C13         C  0.75503331  0.73440088  0.68134126     0.89500
O14         O  0.74952789  0.82057776  0.77120010    -0.73600
O15         O  0.74054279  0.69761169  0.77698117    -0.86400
O16         O  0.84838922  0.71726293  0.70228847    -0.79200
C17         C  0.81519626  0.64120897  0.76131838     0.94700
C18         C  0.74043300  0.68536006  0.85965946     0.94500
Mg19       Mg  0.80109263  0.78316998  0.70233237     1.58000
O20         O  0.78379064  0.79896734  0.65382467    -0.79100
O21         O  0.82228112  0.76960196  0.74937950    -0.73400
O22         O  0.79978062  0.65266416  0.78375482    -0.79200
O23         O  0.65717056  0.73577519  0.82181696    -0.80900
O24         O  0.70244525  0.84739940  0.71884354    -0.79200
C25         C  0.82082572  0.74593762  0.76689257     0.88900
O26         O  0.76150943  0.80223610  0.72527267    -0.86400
O27         O  0.77712023  0.73981404  0.69882576    -0.86500
O28         O  0.73135943  0.75190541  0.68017014    -0.73500
Mg29       Mg  0.78397002  0.70105221  0.80092826     1.58000
O30         O  0.82188027  0.65666136  0.73715631    -0.80900
H31         H  0.74620243  0.78601853  0.83527848    -0.04600
O32         O  0.69884054  0.77600762  0.74103509    -0.86200
H33         H  0.66729993  0.75475627  0.71456928    -0.04400
H34         H  0.78797307  0.83324863  0.74727386    -0.04600
C35         C  0.68120202  0.75409834  0.73541510     0.88900
C36         C  0.74676632  0.76531222  0.82118260     0.89500
C37         C  0.76705208  0.81945692  0.74753288     0.89600
H38         H  0.75544704  0.71362151  0.66735823    -0.04600
O39         O  0.75273157  0.67899662  0.73124684    -0.73600
Mg40       Mg  0.71801876  0.79891967  0.70146983     1.58000
H41         H  0.71430324  0.66626525  0.75517753    -0.04600
C42         C  0.64194736  0.76016407  0.81537894     0.94500
O43         O  0.68053980  0.84340090  0.76554714    -0.80900
C44         C  0.68725233  0.85890813  0.74142370     0.94600
O45         O  0.76468623  0.67883900  0.84429579    -0.80800
Mg46       Mg  0.79983811  0.70017072  0.71794494     1.58200
O47         O  0.65369789  0.78270186  0.80027822    -0.79200
O48         O  0.84465083  0.76390485  0.68019961    -0.80900
C49         C  0.62425742  0.99970241  0.75187303    -0.00600
O50         O  0.76039685  0.19848311  0.77712695    -0.86500
C51         C  0.68057012  0.24707213  0.76664769     0.89600
Mg52       Mg  0.79997981  0.21794894  0.79979071     1.58100
O53         O  0.72388386  0.24051403  0.69834375    -0.86200
O54         O  0.74833142  0.17985632  0.73133094    -0.73500
C55         C  0.81430444  0.35970403  0.73949498     0.94600
O56         O  0.73042464  0.24910442  0.82217603    -0.73300
O57         O  0.82048740  0.34451418  0.76396990    -0.80800
Mg58       Mg  0.71698645  0.20202054  0.80107425     1.58000
C59         C  0.73932600  0.31527967  0.64108073     0.94500
O60         O  0.70099023  0.15348066  0.78413384    -0.79100
H61         H  0.74528096  0.21409417  0.66688322    -0.04400
C62         C  0.73411745  0.32081681  0.74605293     0.89500
O63         O  0.82096915  0.23139817  0.75260201    -0.73600
O64         O  0.69790007  0.22485192  0.76129958    -0.86400
O65         O  0.71681402  0.30001472  0.65273845    -0.79200
C66         C  0.64092177  0.24040325  0.68693130     0.94700
C67         C  0.68564155  0.14191713  0.76167744     0.94500
Mg68       Mg  0.78304845  0.29959083  0.70014884     1.58000
O69         O  0.79913430  0.34807416  0.71695809    -0.79100
O70         O  0.76947163  0.25248032  0.67924477    -0.73400
O71         O  0.65257732  0.21800487  0.70231248    -0.79200
O72         O  0.73637581  0.17992084  0.84467867    -0.80900
O73         O  0.84707605  0.28421166  0.79956779    -0.79200
C74         C  0.74581640  0.23497475  0.68072640     0.88900
O75         O  0.80207707  0.27695585  0.74008822    -0.86400
O76         O  0.73964158  0.30333229  0.72400699    -0.86500
O77         O  0.75148434  0.32198740  0.76982955    -0.73500
Mg78       Mg  0.70119018  0.20088307  0.71789114     1.58000
O79         O  0.65632787  0.26451045  0.67989823    -0.80900
H80         H  0.78671175  0.16718601  0.75537287    -0.04600
O81         O  0.77588156  0.26130756  0.80294644    -0.86200
H82         H  0.75449298  0.28756649  0.83454619    -0.04400
H83         H  0.83351283  0.25514902  0.71399854    -0.04600
C84         C  0.75398965  0.26672570  0.82064849     0.88900
C85         C  0.76585838  0.18106916  0.75500114     0.89500
C86         C  0.81961148  0.25488125  0.73483357     0.89600
H87         H  0.71330969  0.33475041  0.74553848    -0.04600
O88         O  0.67925340  0.27055688  0.74886718    -0.73600
Mg89       Mg  0.79852711  0.30099936  0.78348457     1.58000
H90         H  0.66680593  0.24692645  0.78757945    -0.04600
C91         C  0.76070070  0.18635514  0.86001581     0.94500
O92         O  0.84340759  0.23761033  0.82177537    -0.80900
C93         C  0.85868689  0.26189438  0.81509136     0.94600
O94         O  0.67919924  0.15726601  0.73736320    -0.80800
Mg95       Mg  0.69999172  0.28397015  0.70153943     1.58200
O96         O  0.78309461  0.20185135  0.84846885    -0.79200
O97         O  0.76374501  0.32153662  0.65635718    -0.80900
C98         C  0.87798264  0.50050426  0.74919333    -0.00600
C99         C  0.74919983  0.87402686  0.49992486    -0.00600
O100        O  0.77761534  0.75851437  0.19740950    -0.86500
C101        C  0.76726613  0.67916009  0.24708944     0.89600
Mg102      Mg  0.79980598  0.79866128  0.21601962     1.58100
O103        O  0.69891912  0.72234756  0.23957636    -0.86200
O104        O  0.73202562  0.74592949  0.17865813    -0.73500
C105        C  0.73973986  0.81382868  0.35770778     0.94600
O106        O  0.82255679  0.72972512  0.24883913    -0.73300
O107        O  0.76388380  0.82072166  0.34230144    -0.80800
Mg108      Mg  0.80178648  0.71533973  0.20195731     1.58000
C109        C  0.64150923  0.73856265  0.31377594     0.94500
O110        O  0.78514294  0.69867587  0.15372387    -0.79100
H111        H  0.66742405  0.74319425  0.21272958    -0.04400
C112        C  0.74669748  0.73385148  0.31952662     0.89500
O113        O  0.75241524  0.81939614  0.22892629    -0.73600
O114        O  0.76196809  0.69638111  0.22476860    -0.86400
O115        O  0.65328142  0.71594589  0.29881803    -0.79200
C116        C  0.68743008  0.63951615  0.24056357     0.94700
C117        C  0.76280571  0.68315068  0.14220712     0.94500
Mg118      Mg  0.70042533  0.78217637  0.29776715     1.58000
O119        O  0.71736768  0.79838562  0.34612822    -0.79100
O120        O  0.67956033  0.76801079  0.25078378    -0.73400
O121        O  0.70299395  0.65082638  0.21812775    -0.79200
O122        O  0.84543999  0.73455268  0.17986407    -0.80900
O123        O  0.79903217  0.84692231  0.28132856    -0.79200
C124        C  0.68120601  0.74410862  0.23364245     0.88900
O125        O  0.74014524  0.80119748  0.27484374    -0.86400
O126        O  0.72454911  0.73897447  0.30202254    -0.86500
O127        O  0.77027215  0.75151561  0.32054404    -0.73500
Mg128      Mg  0.71868364  0.69915542  0.20046285     1.58000
O129        O  0.68043880  0.65518014  0.26448892    -0.80900
H130        H  0.75604393  0.78411729  0.16537414    -0.04600
O131        O  0.80320819  0.77544231  0.25981103    -0.86200
H132        H  0.83478843  0.75477940  0.28668457    -0.04400
H133        H  0.71370749  0.83194733  0.25244978    -0.04600
C134        C  0.82096528  0.75373892  0.26581280     0.88900
C135        C  0.75562854  0.76354151  0.17968689     0.89500
C136        C  0.73468989  0.81827591  0.25244208     0.89600
H137        H  0.74643692  0.71315629  0.33367241    -0.04600
O138        O  0.74943017  0.67799997  0.27051787    -0.73600
Mg139      Mg  0.78350756  0.79846528  0.29899627     1.58000
H140        H  0.78818143  0.66536878  0.24707911    -0.04600
C141        C  0.86046458  0.75920199  0.18577023     0.94500
O142        O  0.82123146  0.84274100  0.23476945    -0.80900
C143        C  0.81434283  0.85835999  0.25876685     0.94600
O144        O  0.73848151  0.67661479  0.15746871    -0.80800
Mg145      Mg  0.70210212  0.69900971  0.28334817     1.58200
O146        O  0.84857772  0.78188933  0.20051645    -0.79200
O147        O  0.65672661  0.76303089  0.31993166    -0.80900
C148        C  0.75190610  0.62261212  0.00028485    -0.00600
C149        C  0.49867431  0.74847207  0.37412744    -0.00600
C150        C  0.12653130  0.00060627  0.75144509    -0.00600
C151        C  0.75046170  0.12340854  0.00162020    -0.00600
C152        C  0.37396144  0.49999446  0.74853335    -0.00600
C153        C  0.74942289  0.37701709  0.49874996    -0.00600
C154        C  0.62457236  0.49849650  0.25092670    -0.00600
C155        C  0.24924508  0.62570487  0.49972415    -0.00600
C156        C  0.00181860  0.75017985  0.12291389    -0.00600
O157        O  0.28238779  0.78640478  0.28159358    -0.86500
C158        C  0.28813147  0.76491989  0.19024019     0.89600
Mg159      Mg  0.28612977  0.75223849  0.31734408     1.58100
O160        O  0.21293708  0.78118699  0.21580432    -0.86200
O161        O  0.24866356  0.82100531  0.26565893    -0.73500
C162        C  0.19490514  0.63687181  0.27033328     0.94600
O163        O  0.32184564  0.73314889  0.24875543    -0.73300
O164        O  0.21853649  0.64146695  0.28733133    -0.80800
Mg165      Mg  0.31765162  0.78622503  0.24650610     1.58000
C166        C  0.13899854  0.72701860  0.19242456     0.94500
O167        O  0.31795914  0.83976745  0.24349115    -0.79100
H168        H  0.18297347  0.80999378  0.23624214    -0.04400
C169        C  0.23564059  0.68991589  0.21130414     0.89500
O170        O  0.23301627  0.74944239  0.32105682    -0.73600
O171        O  0.28227906  0.78252709  0.21209947    -0.86400
O172        O  0.16077161  0.74241240  0.17971959    -0.79200
C173        C  0.22890524  0.80495337  0.13714357     0.94700
C174        C  0.30501897  0.86143752  0.22812587     0.94500
Mg175      Mg  0.18239755  0.71201529  0.25155750     1.58000
O176        O  0.18206794  0.65846560  0.25476862    -0.79100
O177        O  0.17809597  0.76505277  0.24918478    -0.73400
O178        O  0.24385392  0.81806960  0.15899131    -0.79200
O179        O  0.35683357  0.78806705  0.28161319    -0.80900
O180        O  0.25615417  0.68034255  0.33944254    -0.79200
C181        C  0.19090738  0.78639378  0.23341163     0.88900
O182        O  0.21778178  0.71580262  0.28608010    -0.86400
O183        O  0.21778577  0.71172937  0.21658067    -0.86500
O184        O  0.25131377  0.67701586  0.23266983    -0.73500
Mg185      Mg  0.24670064  0.81725158  0.21254215     1.58000
O186        O  0.21250374  0.78084281  0.14141627    -0.80900
H187        H  0.26131794  0.81569663  0.31062789    -0.04600
O188        O  0.28718153  0.71695074  0.28231949    -0.86200
H189        H  0.31693784  0.68817118  0.26154886    -0.04400
H190        H  0.18828434  0.73601129  0.31552602    -0.04600
C191        C  0.30907800  0.71177063  0.26452792     0.88900
C192        C  0.26443069  0.80811419  0.28695842     0.89500
C193        C  0.21203352  0.73342058  0.30796282     0.89600
H194        H  0.23872981  0.68222603  0.18766222    -0.04600
O195        O  0.26725825  0.74873954  0.17719117    -0.73600
Mg196      Mg  0.25329872  0.68098404  0.28579131     1.58000
H197        H  0.31190108  0.76242543  0.18271177    -0.04600
C198        C  0.36134864  0.77102999  0.30523056     0.94500
O199        O  0.28795054  0.71729225  0.35677544    -0.80900
C200        C  0.27130277  0.69337626  0.36121582     0.94600
O201        O  0.28134032  0.85689466  0.21117850    -0.80800
Mg202      Mg  0.21420453  0.74588119  0.18078011     1.58200
O203        O  0.33965791  0.75560707  0.31806601    -0.79200
O204        O  0.14331936  0.71012283  0.21619500    -0.80900
C205        C  0.25073331  0.87404036  0.99949941    -0.00600
C206        C  0.49906682  0.25056342  0.62584218    -0.00600
O207        O  0.28161553  0.28370194  0.78714336    -0.86500
C208        C  0.19004484  0.28816792  0.76551901     0.89600
Mg209      Mg  0.31722729  0.28768992  0.75292309     1.58100
O210        O  0.21645770  0.21324699  0.78194292    -0.86200
O211        O  0.26596308  0.24966868  0.82160547    -0.73500
C212        C  0.26992764  0.19669347  0.63749043     0.94600
O213        O  0.24835136  0.32311952  0.73386672    -0.73300
O214        O  0.28678132  0.22041385  0.64211447    -0.80800
Mg215      Mg  0.24612994  0.31858132  0.78684101     1.58000
C216        C  0.19394858  0.13882283  0.72802672     0.94500
O217        O  0.24309117  0.31867782  0.84028519    -0.79100
H218        H  0.23736728  0.18356968  0.81074273    -0.04400
C219        C  0.21114453  0.23629216  0.69112523     0.89500
O220        O  0.32121003  0.23463448  0.75003523    -0.73600
O221        O  0.21210341  0.28266822  0.78301482    -0.86400
O222        O  0.18097076  0.16037569  0.74350487    -0.79200
C223        C  0.13755364  0.22842637  0.80583924     0.94700
C224        C  0.22782651  0.30554612  0.86189548     0.94500
Mg225      Mg  0.25219321  0.18330097  0.71270922     1.58000
O226        O  0.25485890  0.18340855  0.65915978    -0.79100
O227        O  0.25020798  0.17880690  0.76576733    -0.73400
O228        O  0.15927300  0.24382157  0.81866166    -0.79200
O229        O  0.28096290  0.35817662  0.78873335    -0.80900
O230        O  0.33899193  0.25805851  0.68082862    -0.79200
C231        C  0.23435938  0.19144473  0.78714144     0.88900
O232        O  0.28621568  0.21917017  0.71649167    -0.86400
O233        O  0.21669937  0.21813063  0.71263943    -0.86500
O234        O  0.23226725  0.25240735  0.67835973    -0.73500
Mg235      Mg  0.21285332  0.24712021  0.81783105     1.58000
O236        O  0.14198778  0.21167111  0.78201723    -0.80900
H237        H  0.31080965  0.26282797  0.81645417    -0.04600
O238        O  0.28203730  0.28858365  0.71782527    -0.86200
H239        H  0.26147188  0.31844394  0.68897553    -0.04400
H240        H  0.31594278  0.18988992  0.73661919    -0.04600
C241        C  0.26429237  0.31049150  0.71257195     0.88900
C242        C  0.28711772  0.26572258  0.80881972     0.89500
C243        C  0.30820679  0.21357720  0.73404574     0.89600
H244        H  0.18741440  0.23930332  0.68362643    -0.04600
O245        O  0.17699214  0.26701332  0.74969384    -0.73600
Mg246      Mg  0.28539403  0.25484606  0.68182907     1.58000
H247        H  0.18225116  0.31183393  0.76289222    -0.04600
C248        C  0.30467074  0.36281141  0.77183218     0.94500
O249        O  0.35647967  0.28976400  0.71778318    -0.80900
C250        C  0.36080758  0.27321310  0.69378672     0.94600
O251        O  0.21109137  0.28173898  0.85732735    -0.80800
Mg252      Mg  0.18118588  0.21393439  0.74689816     1.58200
O253        O  0.31766369  0.34119207  0.75646428    -0.79200
O254        O  0.21746934  0.14361536  0.71091536    -0.80900
C255        C  0.00067145  0.25053261  0.87607107    -0.00600
O256        O  0.78146274  0.21672975  0.21285268    -0.86500
C257        C  0.69049602  0.21164858  0.23542756     0.89600
Mg258      Mg  0.81740997  0.21302453  0.24672813     1.58100
O259        O  0.71633204  0.28661314  0.21843424    -0.86200
O260        O  0.76553078  0.25039891  0.17819956    -0.73500
C261        C  0.77208367  0.30535565  0.36240380     0.94600
O262        O  0.74898332  0.17760648  0.26664132    -0.73300
O263        O  0.78881758  0.28150217  0.35785787    -0.80800
Mg264      Mg  0.74628173  0.18159820  0.21351243     1.58000
C265        C  0.69381984  0.36102184  0.27270514     0.94500
O266        O  0.74287860  0.18117713  0.15995383    -0.79100
H267        H  0.73674487  0.31629280  0.18928098    -0.04400
C268        C  0.71238598  0.26467011  0.31001121     0.89500
O269        O  0.82136900  0.26610012  0.24921458    -0.73600
O270        O  0.71212388  0.21718628  0.21741287    -0.86400
O271        O  0.68084315  0.33931188  0.25743863    -0.79200
C272        C  0.63730764  0.27075452  0.19563707     0.94700
C273        C  0.72753665  0.19412831  0.13826874     0.94500
Mg274      Mg  0.75287533  0.31744575  0.28717466     1.58000
O275        O  0.75659023  0.31818009  0.34074540    -0.79100
O276        O  0.75001374  0.32139260  0.23409951    -0.73400
O277        O  0.65897296  0.25568626  0.18237249    -0.79200
O278        O  0.78128076  0.14232066  0.21138487    -0.80900
O279        O  0.84022298  0.24330019  0.31820938    -0.79200
C280        C  0.73403348  0.30851642  0.21295480     0.88900
O281        O  0.78702541  0.28182366  0.28328212    -0.86400
O282        O  0.71767511  0.28228599  0.28799614    -0.86500
O283        O  0.73368182  0.24885076  0.32282980    -0.73500
Mg284      Mg  0.71249247  0.25265419  0.18250884     1.58000
O285        O  0.64190847  0.28741793  0.21950430    -0.80900
H286        H  0.81043594  0.23737797  0.18315785    -0.04600
O287        O  0.78267282  0.21235153  0.28241706    -0.86200
H288        H  0.76205341  0.18275994  0.31152028    -0.04400
H289        H  0.81639677  0.31094366  0.26239376    -0.04600
C290        C  0.76488253  0.19050050  0.28784952     0.88900
C291        C  0.78679745  0.23450987  0.19097829     0.89500
C292        C  0.80869048  0.28727808  0.26528897     0.89600
H293        H  0.68878040  0.26190291  0.31794026    -0.04600
O294        O  0.67782386  0.23274811  0.25160674    -0.73600
Mg295      Mg  0.78670478  0.24646561  0.31829421     1.58000
H296        H  0.68284502  0.18795537  0.23827909    -0.04600
C297        C  0.80524980  0.13782247  0.22792239     0.94500
O298        O  0.85705887  0.21122070  0.28127118    -0.80900
C299        C  0.86178279  0.22803854  0.30499107     0.94600
O300        O  0.71065361  0.21785892  0.14284056    -0.80800
Mg301      Mg  0.68163861  0.28580528  0.25410766     1.58200
O302        O  0.81818133  0.15946216  0.24333205    -0.79200
O303        O  0.71782627  0.35664009  0.28922282    -0.80900
C304        C  0.87526049  0.00047161  0.24863527    -0.00600
C305        C  0.99842649  0.25110389  0.37468094    -0.00600
O306        O  0.25916035  0.30215424  0.22282540    -0.86500
C307        C  0.17893786  0.25390770  0.23333257     0.89600
Mg308      Mg  0.29877650  0.28334157  0.19974120     1.58100
O309        O  0.22339542  0.25989875  0.30093617    -0.86200
O310        O  0.24734845  0.32092231  0.26856663    -0.73500
C311        C  0.31293371  0.14101622  0.25753206     0.94600
O312        O  0.22893020  0.25190609  0.17760321    -0.73300
O313        O  0.31956487  0.15647110  0.23335168    -0.80800
Mg314      Mg  0.21555529  0.29873156  0.19915787     1.58000
C315        C  0.23963734  0.18531023  0.35691474     0.94500
O316        O  0.19967296  0.34701709  0.21647051    -0.79100
H317        H  0.24531686  0.28603449  0.33227148    -0.04400
C318        C  0.23314994  0.18027830  0.25194756     0.89500
O319        O  0.32024904  0.26953554  0.24648012    -0.73600
O320        O  0.19666552  0.27578449  0.23878030    -0.86400
O321        O  0.21708267  0.20063418  0.34556341    -0.79200
C322        C  0.14073342  0.25991148  0.31380138     0.94700
C323        C  0.18443888  0.35847623  0.23902728     0.94500
Mg324      Mg  0.28244888  0.20085386  0.29768518     1.58000
O325        O  0.29785211  0.15254918  0.28014828    -0.79100
O326        O  0.26930639  0.24779143  0.31919770    -0.73400
O327        O  0.15218498  0.28240085  0.29843278    -0.79200
O328        O  0.23451062  0.32105760  0.15573703    -0.80900
O329        O  0.34593987  0.21732929  0.19863186    -0.79200
C330        C  0.24562112  0.26528651  0.31825257     0.88900
O331        O  0.30132363  0.22379047  0.25809547    -0.86400
O332        O  0.23882420  0.19759743  0.27409461    -0.86500
O333        O  0.25050591  0.17911076  0.22816406    -0.73500
Mg334      Mg  0.20044772  0.29957962  0.28223785     1.58000
O335        O  0.15610137  0.23559424  0.32012506    -0.80900
H336        H  0.28550943  0.33368594  0.24422590    -0.04600
O337        O  0.27485980  0.23995649  0.19588866    -0.86200
H338        H  0.25315986  0.21387379  0.16435284    -0.04400
H339        H  0.33310335  0.24487160  0.28438676    -0.04600
C340        C  0.25271690  0.23455730  0.17847949     0.88900
C341        C  0.26472062  0.31969348  0.24481089     0.89500
C342        C  0.31901900  0.24565419  0.26368697     0.89600
H343        H  0.21226526  0.16642816  0.25241683    -0.04600
O344        O  0.17769500  0.23013173  0.25069367    -0.73600
Mg345      Mg  0.29755852  0.20018861  0.21456909     1.58000
H346        H  0.16480041  0.25460145  0.21266282    -0.04600
C347        C  0.25876335  0.31471672  0.14030420     0.94500
O348        O  0.34230490  0.26434396  0.17730936    -0.80900
C349        C  0.35758165  0.23994806  0.18358816     0.94600
O350        O  0.17809984  0.34308307  0.26332370    -0.80800
Mg351      Mg  0.19941158  0.21651166  0.29742368     1.58200
O352        O  0.28138141  0.29951269  0.15168018    -0.79200
O353        O  0.26365872  0.17856390  0.34128761    -0.80900
C354        C  0.24981919  0.37570143  0.99846330    -0.00600
C355        C  0.37397780  0.99916675  0.24948604    -0.00600
O356        O  0.94675490  0.01115948  0.47426486    -0.86500
C357        C  0.99557742  0.93141298  0.48437775     0.89600
Mg358      Mg  0.96590865  0.05101802  0.45192120     1.58100
O359        O  0.98862935  0.97444271  0.55279864    -0.86200
O360        O  0.92793571  0.99871568  0.51987489    -0.73500
C361        C  0.10756025  0.06554988  0.51218750     0.94600
O362        O  0.99763945  0.98175491  0.42918123    -0.73300
O363        O  0.09225962  0.07205197  0.48787186    -0.80800
Mg364      Mg  0.95055285  0.96795254  0.45006665     1.58000
C365        C  0.06307306  0.99001473  0.61025237     0.94500
O366        O  0.90202165  0.95186431  0.46686162    -0.79100
H367        H  0.96202945  0.99559705  0.58426444    -0.04400
C368        C  0.06890443  0.98535218  0.50517419     0.89500
O369        O  0.97909175  0.07177014  0.49925598    -0.73600
O370        O  0.97331558  0.94867743  0.48975840    -0.86400
O371        O  0.04789171  0.96751832  0.59848480    -0.79200
C372        C  0.98888628  0.89147142  0.56399443     0.94700
C373        C  0.89042351  0.93636732  0.48920108     0.94500
Mg374      Mg  0.04747165  0.03388736  0.55135522     1.58000
O375        O  0.09599527  0.05013537  0.53460794    -0.79100
O376        O  0.00034981  0.02000487  0.57211147    -0.73400
O377        O  0.96647631  0.90301340  0.54854767    -0.79200
O378        O  0.92854615  0.98747775  0.40653042    -0.80900
O379        O  0.03173900  0.09856943  0.45265215    -0.79200
C380        C  0.98294399  0.99628140  0.57048427     0.88900
O381        O  0.02477917  0.05308022  0.51158576    -0.86400
O382        O  0.05137183  0.99064194  0.52724708    -0.86500
O383        O  0.07008612  0.00293741  0.48154890    -0.73500
Mg384      Mg  0.94919358  0.95162639  0.53309951     1.58000
O385        O  0.01289757  0.90699335  0.57107784    -0.80900
H386        H  0.91517619  0.03715782  0.49598161    -0.04600
O387        O  0.00941640  0.02725593  0.44859197    -0.86200
H388        H  0.03593655  0.00618947  0.41698715    -0.04400
H389        H  0.00280118  0.08420612  0.53791464    -0.04600
C390        C  0.01505165  0.00547049  0.43082401     0.88900
C391        C  0.92917773  0.01638958  0.49631611     0.89500
C392        C  0.00260271  0.07044433  0.51697981     0.89600
H393        H  0.08290865  0.96457258  0.50553912    -0.04600
O394        O  0.01903974  0.93010455  0.50217820    -0.73600
Mg395      Mg  0.04888564  0.05000125  0.46823071     1.58000
H396        H  0.99548809  0.91770906  0.46341169    -0.04600
C397        C  0.93497425  0.01191029  0.39136652     0.94500
O398        O  0.98520830  0.09474681  0.43033555    -0.80900
C399        C  0.00932892  0.11016278  0.43725882     0.94600
O400        O  0.90578117  0.92956995  0.51340630    -0.80800
Mg401      Mg  0.03218822  0.95079275  0.54958353     1.58200
O402        O  0.95020571  0.03434940  0.40313621    -0.79200
O403        O  0.06940231  0.01445964  0.59504915    -0.80900
O404        O  0.03455870  0.03870962  0.96856683    -0.86500
C405        C  0.94294931  0.01694619  0.96331805     0.89600
Mg406      Mg  0.07034079  0.00454281  0.96441053     1.58100
O407        O  0.96880671  0.03295005  0.03853274    -0.86200
O408        O  0.01840432  0.07288750  0.00264674    -0.73500
C409        C  0.02313369  0.88842609  0.05478589     0.94600
O410        O  0.00164014  0.98571560  0.92851110    -0.73300
O411        O  0.03980806  0.89311935  0.03094213    -0.80800
Mg412      Mg  0.99927131  0.03867775  0.93342226     1.58000
C413        C  0.94635593  0.97832891  0.11238136     0.94500
O414        O  0.99605776  0.09218479  0.93366838    -0.79100
H415        H  0.98971693  0.06154109  0.06839094    -0.04400
C416        C  0.96410556  0.94214308  0.01491460     0.89500
O417        O  0.07422662  0.00114607  0.01744414    -0.73600
O418        O  0.96491465  0.03447550  0.96907413    -0.86400
O419        O  0.93335400  0.99378902  0.09081960    -0.79200
C420        C  0.88974169  0.05663893  0.02317097     0.94700
C421        C  0.98056017  0.11366092  0.94674105     0.94500
Mg422      Mg  0.00494155  0.96355561  0.06816740     1.58000
O423        O  0.00796967  0.91001849  0.06806179    -0.79100
O424        O  0.00269695  0.01657600  0.07280017    -0.73400
O425        O  0.91146212  0.06974438  0.00796631    -0.79200
O426        O  0.03440708  0.04100398  0.89400851    -0.80900
O427        O  0.09200504  0.93198563  0.99331985    -0.79200
C428        C  0.98674464  0.03800095  0.06035079     0.88900
O429        O  0.03914023  0.96751717  0.03247529    -0.86400
O430        O  0.96953270  0.96359157  0.03316967    -0.86500
O431        O  0.98532631  0.92950056  0.99886196    -0.73500
Mg432      Mg  0.96523789  0.06906646  0.00483704     1.58000
O433        O  0.89428575  0.03261996  0.03966047    -0.80900
H434        H  0.06343180  0.06789943  0.99005311    -0.04600
O435        O  0.03518998  0.96934287  0.96306023    -0.86200
H436        H  0.01473943  0.94078278  0.93286672    -0.04400
H437        H  0.06885930  0.98723677  0.06204182    -0.04600
C438        C  0.01752675  0.96429817  0.94103328     0.88900
C439        C  0.03979042  0.06023626  0.98679746     0.89500
C440        C  0.06116060  0.98494799  0.03830627     0.89600
H441        H  0.94041320  0.93460135  0.01176582    -0.04600
O442        O  0.92983642  0.00090293  0.98428136    -0.73600
Mg443      Mg  0.03843569  0.93305275  0.99660214     1.58000
H444        H  0.93528410  0.01448945  0.93957808    -0.04600
C445        C  0.05820618  0.02423641  0.88933984     0.94500
O446        O  0.10962254  0.96938061  0.96216198    -0.80900
C447        C  0.11384459  0.94506308  0.97830046     0.94600
O448        O  0.96361488  0.10885466  0.97036740    -0.80800
Mg449      Mg  0.93377367  0.99767769  0.03735821     1.58200
O450        O  0.07108790  0.00866139  0.91090157    -0.79200
O451        O  0.97007280  0.96147259  0.10769275    -0.80900
O452        O  0.50812703  0.97274119  0.44873386    -0.86500
C453        C  0.42828420  0.98410219  0.49705762     0.89600
Mg454      Mg  0.54750593  0.94943048  0.46776401     1.58100
O455        O  0.47292689  0.05161434  0.49083712    -0.86200
O456        O  0.49675643  0.01867108  0.43001175    -0.73500
C457        C  0.56306071  0.00836488  0.60968759     0.94600
O458        O  0.47764279  0.92821557  0.49938540    -0.73300
O459        O  0.56937701  0.98408800  0.59426696    -0.80800
Mg460      Mg  0.46437980  0.94943941  0.45231165     1.58000
C461        C  0.48933353  0.10778695  0.56569059     0.94500
O462        O  0.44870475  0.96674444  0.40386173    -0.79100
H463        H  0.49481377  0.08287985  0.46454639    -0.04400
C464        C  0.48284885  0.00301287  0.57088111     0.89500
O465        O  0.56931137  0.99621697  0.48114464    -0.73600
O466        O  0.44586483  0.98937228  0.47502322    -0.86400
O467        O  0.46669283  0.09648693  0.55041927    -0.79200
C468        C  0.39025551  0.06446949  0.49096767     0.94700
C469        C  0.43377196  0.98945824  0.39226002     0.94500
Mg470      Mg  0.53220838  0.04841650  0.54976718     1.58000
O471        O  0.54796040  0.03101604  0.59818082    -0.79100
O472        O  0.51889582  0.06983196  0.50278071    -0.73400
O473        O  0.40163712  0.04917599  0.46839089    -0.79200
O474        O  0.48293346  0.90550918  0.43031713    -0.80900
O475        O  0.59517391  0.94890203  0.53339592    -0.79200
C476        C  0.49515833  0.06889010  0.48534713     0.88900
O477        O  0.55077314  0.00854562  0.52687626    -0.86400
O478        O  0.48851471  0.02498218  0.55331720    -0.86500
O479        O  0.50008177  0.97914276  0.57212935    -0.73500
Mg480      Mg  0.44990179  0.03277964  0.45117482     1.58000
O481        O  0.40573731  0.07083738  0.51520407    -0.80900
H482        H  0.53469950  0.99399885  0.41728222    -0.04600
O483        O  0.52370456  0.94628178  0.51125923    -0.86200
H484        H  0.50164395  0.91526595  0.53769367    -0.04400
H485        H  0.58250238  0.03442090  0.50517003    -0.04600
C486        C  0.50137927  0.92914462  0.51682640     0.88900
C487        C  0.51389454  0.99473320  0.43123302     0.89500
C488        C  0.56830389  0.01377320  0.50478310     0.89600
H489        H  0.46208977  0.00371725  0.58487834    -0.04600
O490        O  0.42731180  0.00153986  0.52077502    -0.73600
Mg491      Mg  0.54690383  0.96514318  0.55078868     1.58000
H492        H  0.41404619  0.96348281  0.49656709    -0.04600
C493        C  0.50702452  0.88986038  0.43683754     0.94500
O494        O  0.59087764  0.92680652  0.48682337    -0.80900
C495        C  0.60650226  0.93347337  0.51088578     0.94600
O496        O  0.42760242  0.01384165  0.40758150    -0.80800
Mg497      Mg  0.44907611  0.04826338  0.53432801     1.58200
O498        O  0.52969881  0.90119109  0.45202903    -0.79200
O499        O  0.51352332  0.09219976  0.57199534    -0.80900
C500        C  0.24912189  0.12729266  0.50029851    -0.00600
O501        O  0.53346514  0.03099262  0.96418567    -0.86500
C502        C  0.53778443  0.93960404  0.98629951     0.89600
Mg503      Mg  0.53708873  0.06673732  0.99825597     1.58100
O504        O  0.46291373  0.96575078  0.96907927    -0.86200
O505        O  0.49966961  0.01519909  0.92956900    -0.73500
C506        C  0.44445115  0.02044769  0.11286846     0.94600
O507        O  0.57221665  0.99798575  0.01802786    -0.73300
O508        O  0.46822780  0.03727434  0.10841705    -0.80800
Mg509      Mg  0.56837618  0.99557438  0.96494064     1.58000
C510        C  0.38813475  0.94318159  0.02274376     0.94500
O511        O  0.56893656  0.99244836  0.91138692    -0.79100
H512        H  0.43335577  0.98619653  0.93982683    -0.04400
C513        C  0.48477717  0.96112095  0.06035148     0.89500
O514        O  0.48397726  0.07073629  0.00043789    -0.73600
O515        O  0.53245788  0.96147873  0.96851242    -0.86400
O516        O  0.40987150  0.93016974  0.00755451    -0.79200
C517        C  0.47823638  0.88686866  0.94547592     0.94700
C518        C  0.55590258  0.97725393  0.88965280     0.94500
Mg519      Mg  0.43209606  0.00194227  0.03768490     1.58000
O520        O  0.43150016  0.00516100  0.09116537    -0.79100
O521        O  0.42814041  0.99944231  0.98463187    -0.73400
O522        O  0.49365794  0.90855940  0.93261663    -0.79200
O523        O  0.60803327  0.03048236  0.96339717    -0.80900
O524        O  0.50652904  0.08899416  0.06979277    -0.79200
C525        C  0.44104783  0.98346133  0.96352530     0.88900
O526        O  0.46796163  0.03602214  0.03403261    -0.86400
O527        O  0.46703307  0.96651117  0.03846285    -0.86500
O528        O  0.50068377  0.98234512  0.07318811    -0.73500
Mg529      Mg  0.49712560  0.96213192  0.93343930     1.58000
O530        O  0.46160968  0.89130807  0.96940308    -0.80900
H531        H  0.51276671  0.06005469  0.93463286    -0.04600
O532        O  0.53745152  0.03170051  0.03356542    -0.86200
H533        H  0.56689655  0.01114202  0.06285175    -0.04400
H534        H  0.43900772  0.06559781  0.01318974    -0.04600
C535        C  0.55927149  0.01393759  0.03913757     0.88900
C536        C  0.51563059  0.03640263  0.94236998     0.89500
C537        C  0.46265827  0.05786462  0.01619961     0.89600
H538        H  0.48759696  0.93746350  0.06814280    -0.04600
O539        O  0.51649331  0.92671819  0.00208355    -0.72000
Mg540      Mg  0.50321741  0.03543061  0.06916233     1.58000
H541        H  0.56143008  0.93185814  0.98925078    -0.04600
C542        C  0.61250836  0.05427261  0.98023213     0.94500
O543        O  0.53878532  0.10612613  0.03314301    -0.80900
C544        C  0.52196524  0.11065039  0.05690401     0.94600
O545        O  0.53210272  0.96044692  0.89411327    -0.80800
Mg546      Mg  0.46340802  0.93071328  0.00439660     1.58200
O547        O  0.59071334  0.06726761  0.99536421    -0.79200
O548        O  0.39258264  0.96706279  0.03943126    -0.80900
C549        C  0.50080911  0.24889159  0.12495895    -0.00600
O550        O  0.52695632  0.55102021  0.00954409    -0.86500
C551        C  0.51704913  0.50308142  0.92926162     0.89600
Mg552      Mg  0.54974460  0.53188362  0.04919294     1.58100
O553        O  0.44883103  0.50924448  0.97270108    -0.86200
O554        O  0.48129107  0.56981367  0.99734855    -0.73500
C555        C  0.49036379  0.39029675  0.06326809     0.94600
O556        O  0.57201546  0.50066124  0.97951167    -0.73300
O557        O  0.51455992  0.40564392  0.07004805    -0.80800
Mg558      Mg  0.55091195  0.54779511  0.96615138     1.58000
C559        C  0.39235334  0.43497474  0.98815419     0.94500
O560        O  0.53372032  0.59639515  0.95062640    -0.79100
H561        H  0.41730420  0.53558671  0.99407904    -0.04400
C562        C  0.49701938  0.42917686  0.98333475     0.89500
O563        O  0.50269747  0.51858578  0.07042456    -0.73600
O564        O  0.51140681  0.52507183  0.94677071    -0.86400
O565        O  0.40410920  0.45011262  0.96567464    -0.79200
C566        C  0.43697897  0.50948580  0.88983281     0.94700
C567        C  0.51125139  0.60796177  0.93528969     0.94500
Mg568      Mg  0.45099993  0.45037782  0.03199852     1.58000
O569        O  0.46796170  0.40188275  0.04786466    -0.79100
O570        O  0.42995562  0.49740406  0.01843364    -0.73400
O571        O  0.45214274  0.53200866  0.90151478    -0.79200
O572        O  0.59440114  0.56973050  0.98552140    -0.80900
O573        O  0.54978220  0.46599918  0.09647746    -0.79200
C574        C  0.43124158  0.51477339  0.99466425     0.88900
O575        O  0.49061190  0.47304667  0.05131382    -0.86400
O576        O  0.47508046  0.44684944  0.98866072    -0.86500
O577        O  0.52060339  0.42780588  0.00094125    -0.73500
Mg578      Mg  0.46795930  0.54889016  0.95013957     1.58000
O579        O  0.43066265  0.48507352  0.90507481    -0.80900
H580        H  0.50519070  0.58228805  0.03587777    -0.04600
O581        O  0.55318591  0.48854820  0.02520876    -0.86200
H582        H  0.58458949  0.46225358  0.00357266    -0.04400
H583        H  0.46433608  0.49442104  0.08290409    -0.04600
C584        C  0.57069787  0.48310241  0.00315412     0.88900
C585        C  0.50486274  0.56846786  0.01498452     0.89500
C586        C  0.48515486  0.49495694  0.06898431     0.89600
H587        H  0.49655396  0.41519165  0.96255890    -0.04600
O588        O  0.49966312  0.47933565  0.92790122    -0.73600
Mg589      Mg  0.53396587  0.44900588  0.04797823     1.58000
H590        H  0.53795057  0.50363251  0.91545000    -0.04600
C591        C  0.60977545  0.56270224  0.00963633     0.94500
O592        O  0.57189863  0.51260822  0.09271319    -0.80900
C593        C  0.56522199  0.48836804  0.10805936     0.94600
O594        O  0.48717733  0.59248896  0.92835395    -0.80800
Mg595      Mg  0.45254832  0.46587203  0.94881296     1.58200
O596        O  0.59814582  0.54733689  0.03201853    -0.79200
O597        O  0.40750221  0.42845438  0.01255973    -0.80900
O598        O  0.96802707  0.53826971  0.53179776    -0.86500
C599        C  0.05920225  0.51559401  0.53607794     0.89600
Mg600      Mg  0.93182429  0.50449664  0.53532398     1.58100
O601        O  0.03269582  0.53337414  0.46152267    -0.86200
O602        O  0.98391666  0.57339576  0.49860984    -0.73500
C603        C  0.97648563  0.38962097  0.44217351     0.94600
O604        O  0.00058916  0.48400386  0.57005402    -0.73300
O605        O  0.95980728  0.39408547  0.46605371    -0.80800
Mg606      Mg  0.00351385  0.53711119  0.56666804     1.58000
C607        C  0.05430503  0.47978015  0.38649544     0.94500
O608        O  0.00728780  0.59067470  0.56791289    -0.79100
H609        H  0.01194325  0.56275163  0.43231061    -0.04400
C610        C  0.03651277  0.44165161  0.48284357     0.89500
O611        O  0.92756903  0.50254420  0.48227687    -0.73600
O612        O  0.03748050  0.53358005  0.53084830    -0.86400
O613        O  0.06750863  0.49486688  0.40819042    -0.79200
C614        C  0.11196662  0.55603623  0.47680431     0.94700
C615        C  0.02273536  0.61241143  0.55516004     0.94500
Mg616      Mg  0.99575292  0.46485398  0.43045974     1.58000
O617        O  0.99202298  0.41127753  0.42939395    -0.79100
O618        O  0.99864792  0.51797290  0.42695988    -0.73400
O619        O  0.09043033  0.56908620  0.49224004    -0.79200
O620        O  0.96879697  0.53877644  0.60611721    -0.80900
O621        O  0.90859587  0.43321861  0.50460125    -0.79200
C622        C  0.01475020  0.53902121  0.43985643     0.88900
O623        O  0.96178804  0.46851390  0.46624414    -0.86400
O624        O  0.03122739  0.46376868  0.46534940    -0.86500
O625        O  0.01521967  0.42873198  0.49860218    -0.73500
Mg626      Mg  0.03693127  0.56892523  0.49583704     1.58000
O627        O  0.10721768  0.53228439  0.45999639    -0.80900
H628        H  0.93906069  0.56840897  0.51180568    -0.04600
O629        O  0.96640054  0.46870912  0.53557799    -0.86200
H630        H  0.98717542  0.43926354  0.56470589    -0.04400
H631        H  0.93234947  0.48960509  0.43733563    -0.04600
C632        C  0.98439036  0.46300925  0.55719533     0.88900
C633        C  0.96268079  0.56044025  0.51439990     0.89500
C634        C  0.94013143  0.48656131  0.46096627     0.89600
H635        H  0.06012735  0.43368383  0.48553672    -0.04600
O636        O  0.07175676  0.49964096  0.51474069    -0.73600
Mg637      Mg  0.96216059  0.43321752  0.50126799     1.58000
H638        H  0.06705246  0.51257809  0.55968681    -0.04600
C639        C  0.94484561  0.52220992  0.61058706     0.94500
O640        O  0.89185848  0.47001550  0.53686860    -0.80900
C641        C  0.88704253  0.44636669  0.51993931     0.94600
O642        O  0.03928914  0.60806642  0.53115808    -0.80800
Mg643      Mg  0.06736375  0.49764975  0.46171427     1.58200
O644        O  0.93156910  0.50723435  0.58885693    -0.79200
O645        O  0.03045675  0.46308028  0.39100974    -0.80900
O646        O  0.03446668  0.46875264  0.03598544    -0.86500
C647        C  0.03947529  0.55994143  0.01364611     0.89600
Mg648      Mg  0.03805702  0.43288583  0.00200187     1.58100
O649        O  0.96471270  0.53379834  0.03096033    -0.86200
O650        O  0.00112869  0.48462914  0.07093536    -0.73500
C651        C  0.94618128  0.47932289  0.88712083     0.94600
O652        O  0.07358951  0.50141901  0.98220262    -0.73300
O653        O  0.96988282  0.46240406  0.89155497    -0.80800
Mg654      Mg  0.06957926  0.50400248  0.03526127     1.58000
C655        C  0.89006522  0.55594732  0.97758413     0.94500
O656        O  0.07022390  0.50733328  0.08877444    -0.79100
H657        H  0.93530568  0.51316913  0.06022572    -0.04400
C658        C  0.98655739  0.53836472  0.93971624     0.89500
O659        O  0.98503111  0.42879459  0.99967369    -0.73600
O660        O  0.03399336  0.53814584  0.03148121    -0.86400
O661        O  0.91176685  0.56901098  0.99276464    -0.79200
C662        C  0.98040803  0.61278329  0.05387201     0.94700
C663        C  0.05740755  0.52288126  0.11036564     0.94500
Mg664      Mg  0.93387362  0.49757853  0.96232145     1.58000
O665        O  0.93325439  0.49457149  0.90885094    -0.79100
O666        O  0.93001439  0.49999126  0.01540946    -0.73400
O667        O  0.99574864  0.59114467  0.06685494    -0.79200
O668        O  0.10876954  0.46907835  0.03714884    -0.80900
O669        O  0.00786600  0.41063982  0.93028224    -0.79200
C670        C  0.94292368  0.51598244  0.03652155     0.88900
O671        O  0.96949139  0.46351096  0.96590694    -0.86400
O672        O  0.96886972  0.53289310  0.96162061    -0.86500
O673        O  0.00242654  0.51718586  0.92679895    -0.73500
Mg674      Mg  0.99879351  0.53769109  0.06658798     1.58000
O675        O  0.96346842  0.60820987  0.03020942    -0.80900
H676        H  0.01407964  0.43972642  0.06580877    -0.04600
O677        O  0.03875260  0.46779825  0.96659393    -0.86200
H678        H  0.06840423  0.48817145  0.93739799    -0.04400
H679        H  0.94023584  0.43397928  0.98637927    -0.04600
C680        C  0.06067067  0.48546315  0.96107487     0.88900
C681        C  0.01687458  0.46337057  0.05798902     0.89500
C682        C  0.96393084  0.44166148  0.98364352     0.89600
H683        H  0.98936451  0.56204396  0.93199593    -0.04600
O684        O  0.01828816  0.57281417  0.99772356    -0.73600
Mg685      Mg  0.00475402  0.46412975  0.93086459     1.58000
H686        H  0.06316035  0.56760202  0.01076301    -0.04600
C687        C  0.11318867  0.44542641  0.02017566     0.94500
O688        O  0.03978447  0.39342069  0.96719042    -0.80900
C689        C  0.02310546  0.38894696  0.94331184     0.94600
O690        O  0.03373039  0.53978886  0.10579695    -0.80800
Mg691      Mg  0.96522116  0.56870633  0.99553791     1.58200
O692        O  0.09146437  0.43247334  0.00493763    -0.79200
O693        O  0.89456861  0.53232371  0.96060623    -0.80900
C694        C  0.12367642  0.50054873  0.24920123    -0.00600
O695        O  0.52993782  0.53601040  0.46573425    -0.86500
C696        C  0.43843505  0.51425405  0.46169374     0.89600
Mg697      Mg  0.56578851  0.50194990  0.46181239     1.58100
O698        O  0.46521042  0.53115434  0.53638856    -0.86200
O699        O  0.51441959  0.57081564  0.49941507    -0.73500
C700        C  0.52000272  0.38682349  0.55418402     0.94600
O701        O  0.49667750  0.48236007  0.42713501    -0.73300
O702        O  0.53674181  0.39132085  0.53034424    -0.80800
Mg703      Mg  0.49428433  0.53544051  0.43098140     1.58000
C704        C  0.44310067  0.47706691  0.61113600     0.94500
O705        O  0.49104911  0.58900324  0.43021665    -0.79100
H706        H  0.48622237  0.56010930  0.56581425    -0.04400
C707        C  0.46048030  0.43981136  0.51416933     0.89500
O708        O  0.57018926  0.49946222  0.51485502    -0.73600
O709        O  0.46040262  0.53192411  0.46698297    -0.86400
O710        O  0.42998658  0.49242697  0.58955793    -0.79200
C711        C  0.38620353  0.55489495  0.52153311     0.94700
C712        C  0.47590708  0.61077554  0.44323079     0.94500
Mg713      Mg  0.50157617  0.46211210  0.56672118     1.58000
O714        O  0.50474855  0.40852881  0.56718505    -0.79100
O715        O  0.49921671  0.51519864  0.57073394    -0.73400
O716        O  0.40784043  0.56778576  0.50607245    -0.79200
O717        O  0.52888312  0.53708241  0.39128169    -0.80900
O718        O  0.58844601  0.43014536  0.49178901    -0.79200
C719        C  0.48323131  0.53647573  0.55806947     0.88900
O720        O  0.53554153  0.46577751  0.53077279    -0.86400
O721        O  0.46595067  0.46164177  0.53195627    -0.86500
O722        O  0.48165905  0.42691069  0.49824931    -0.73500
Mg723      Mg  0.46136317  0.56696735  0.50228442     1.58000
O724        O  0.39070808  0.53090890  0.53809851    -0.80900
H725        H  0.55919529  0.56559464  0.48609896    -0.04600
O726        O  0.53085383  0.46653047  0.46137647    -0.86200
H727        H  0.50979576  0.43749616  0.43206841    -0.04400
H728        H  0.56532891  0.48628611  0.55973146    -0.04600
C729        C  0.51277039  0.46114390  0.43976073     0.88900
C730        C  0.53550770  0.55788874  0.48341988     0.89500
C731        C  0.55744723  0.48351346  0.53610866     0.89600
H732        H  0.43680302  0.43209112  0.51136341    -0.04600
O733        O  0.42569380  0.49834266  0.48297188    -0.73600
Mg734      Mg  0.53478236  0.43077117  0.49543888     1.58000
H735        H  0.43049633  0.51150112  0.43808759    -0.04600
C736        C  0.55271602  0.52037281  0.38669829     0.94500
O737        O  0.60536179  0.46707718  0.45972398    -0.80900
C738        C  0.61004044  0.44318872  0.47636831     0.94600
O739        O  0.45940858  0.60639526  0.46726646    -0.80800
Mg740      Mg  0.43014598  0.49581489  0.53599120     1.58200
O741        O  0.56589438  0.50519519  0.40834816    -0.79200
O742        O  0.46689851  0.46032667  0.60643357    -0.80900
C743        C  0.00166721  0.74993930  0.62516159    -0.00600
O744        O  0.28760026  0.78199733  0.78305239    -0.86500
C745        C  0.26553906  0.69048819  0.78632615     0.89600
Mg746      Mg  0.25363289  0.81784460  0.78749577     1.58100
O747        O  0.28237149  0.71747794  0.71166808    -0.86200
O748        O  0.32194914  0.76656038  0.74881250    -0.73500
C749        C  0.13862761  0.77298548  0.69472937     0.94600
O750        O  0.23404771  0.74843859  0.82168842    -0.73300
O751        O  0.14318978  0.78948862  0.71870446    -0.80800
Mg752      Mg  0.28710312  0.74600756  0.81744395     1.58000
C753        C  0.22802543  0.69596595  0.63693113     0.94500
O754        O  0.34062510  0.74287087  0.81765318    -0.79100
H755        H  0.31150533  0.73825387  0.68222428    -0.04400
C756        C  0.19123928  0.71293436  0.73414041     0.89500
O757        O  0.25106129  0.82269916  0.73448524    -0.73600
O758        O  0.28324748  0.71245086  0.78112510    -0.86400
O759        O  0.24329571  0.68257309  0.65840892    -0.79200
C760        C  0.30583137  0.63835420  0.72627760     0.94700
C761        C  0.36232162  0.72788539  0.80435023     0.94500
Mg762      Mg  0.21372593  0.75439705  0.68182637     1.58000
O763        O  0.16026239  0.75782505  0.68153127    -0.79100
O764        O  0.26672982  0.75179655  0.67752733    -0.73400
O765        O  0.31880904  0.65993508  0.74174422    -0.79200
O766        O  0.28909821  0.78024305  0.85749180    -0.80900
O767        O  0.18206035  0.84071059  0.75757701    -0.79200
C768        C  0.28784771  0.73549958  0.69002942     0.88900
O769        O  0.21763396  0.78798287  0.71821297    -0.86400
O770        O  0.21300912  0.71843377  0.71627387    -0.86500
O771        O  0.17855736  0.73403091  0.75034012    -0.73500
Mg772      Mg  0.31815409  0.71348131  0.74567312     1.58000
O773        O  0.28190479  0.64297949  0.70966209    -0.80900
H774        H  0.31696233  0.81128564  0.76239328    -0.04600
O775        O  0.21825586  0.78286630  0.78768890    -0.86200
H776        H  0.18920682  0.76174802  0.81697270    -0.04400
H777        H  0.23809518  0.81807781  0.68953550    -0.04600
C778        C  0.21285081  0.76467701  0.80921846     0.88900
C779        C  0.30925939  0.78759269  0.76508585     0.89500
C780        C  0.23529189  0.81000132  0.71307859     0.89600
H781        H  0.18341366  0.68928301  0.73679561    -0.04600
O782        O  0.24961930  0.67785268  0.76499785    -0.73600
Mg783      Mg  0.18258960  0.78710120  0.75356361     1.58000
H784        H  0.26277727  0.68244055  0.80990397    -0.04600
C785        C  0.27253589  0.80411482  0.86242677     0.94500
O786        O  0.21871986  0.85743206  0.79003006    -0.80900
C787        C  0.19494451  0.86220863  0.77324408     0.94600
O788        O  0.35775795  0.71137403  0.78037608    -0.80800
Mg789      Mg  0.24696069  0.68252261  0.71198969     1.58200
O790        O  0.25717230  0.81749332  0.84101938    -0.79200
O791        O  0.21166965  0.72001354  0.64177929    -0.80900
C792        C  0.49908945  0.74986018  0.87469763    -0.00600
C793        C  0.39326377  0.73038325  0.81657272    -0.16600
C794        C  0.41895310  0.73414144  0.82705657     0.07400
C795        C  0.44831336  0.73967950  0.84063334     0.09300
C796        C  0.47224641  0.74458803  0.85435086    -0.17500
C797        C  0.10774012  0.77065429  0.68240558    -0.16600
C798        C  0.08208430  0.76684885  0.67189723     0.07400
C799        C  0.05275255  0.76102151  0.65843691     0.09300
C800        C  0.02877043  0.75572904  0.64497850    -0.17500
C801        C  0.10521027  0.50688946  0.22131020    -0.16600
C802        C  0.09263417  0.51198531  0.19682570     0.07400
C803        C  0.07993634  0.51723447  0.16706778     0.09300
C804        C  0.06977651  0.52062479  0.14122410    -0.17500
C805        C  0.00769906  0.72236317  0.60600640    -0.16600
C806        C  0.01257370  0.69816348  0.59272747     0.07400
C807        C  0.01760531  0.66873392  0.57903638     0.09300
C808        C  0.02080260  0.64313947  0.56810015    -0.17500
C809        C  0.06649904  0.48230030  0.35559881    -0.16600
C810        C  0.07683986  0.48585331  0.32985674     0.07400
C811        C  0.09018435  0.49102917  0.30038265     0.09300
C812        C  0.10368815  0.49561736  0.27630377    -0.17500
C813        C  0.50372167  0.72196318  0.89369891    -0.16600
C814        C  0.50754340  0.69706061  0.90592909     0.07400
C815        C  0.51115334  0.66654796  0.91739392     0.09300
C816        C  0.51258151  0.63990111  0.92582711    -0.17500
C817        C  0.49661302  0.27655374  0.10556793    -0.16600
C818        C  0.49312165  0.30138699  0.09313639     0.07400
C819        C  0.48990152  0.33186458  0.08153817     0.09300
C820        C  0.48878488  0.35846799  0.07297365    -0.17500
C821        C  0.48017568  0.85610737  0.93266325    -0.16600
C822        C  0.48325862  0.83054182  0.92165507     0.07400
C823        C  0.48814165  0.80122650  0.90771115     0.09300
C824        C  0.49296682  0.77718606  0.89415030    -0.17500
C825        C  0.51976728  0.14150359  0.06938054    -0.16600
C826        C  0.51655378  0.16727233  0.07982328     0.07400
C827        C  0.51162419  0.19691098  0.09298433     0.09300
C828        C  0.50682914  0.22125152  0.10597493    -0.17500
C829        C  0.35851035  0.07453964  0.48950202    -0.16600
C830        C  0.33196432  0.08332692  0.49048565     0.07400
C831        C  0.30151173  0.09512120  0.49336155     0.09300
C832        C  0.27669665  0.10768999  0.49649851    -0.17500
C833        C  0.98752430  0.85951598  0.57346187    -0.16600
C834        C  0.98887324  0.83287452  0.58195615     0.07400
C835        C  0.99247495  0.80238825  0.59353300     0.09300
C836        C  0.99648678  0.77757222  0.60589578    -0.17500
C837        C  0.13929530  0.07567124  0.51391511    -0.16600
C838        C  0.16581246  0.08458540  0.51290113     0.07400
C839        C  0.19624844  0.09638348  0.50962810     0.09300
C840        C  0.22113932  0.10862363  0.50572843    -0.17500
C841        C  0.43207984  0.01794502  0.14370691    -0.16600
C842        C  0.42160090  0.01425506  0.16938112     0.07400
C843        C  0.40810472  0.00885076  0.19875709     0.09300
C844        C  0.39441006  0.00411454  0.22270723    -0.17500
C845        C  0.42380829  0.98788139  0.36047584    -0.16600
C846        C  0.41515340  0.98854329  0.33386622     0.07400
C847        C  0.40373884  0.99107651  0.30322113     0.09300
C848        C  0.39191945  0.99431406  0.27803783    -0.17500
C849        C  0.14401922  0.43324071  0.01740926    -0.16600
C850        C  0.16971055  0.42297872  0.01349962     0.07400
C851        C  0.19910299  0.40971412  0.00795333     0.09300
C852        C  0.22306466  0.39610432  0.00324666    -0.17500
C853        C  0.36057570  0.42521209  0.98628696    -0.16600
C854        C  0.33394449  0.41672005  0.98683254     0.07400
C855        C  0.30331971  0.40542893  0.98947340     0.09300
C856        C  0.27820366  0.39363328  0.99302228    -0.17500
C857        C  0.14189785  0.47226644  0.24410997    -0.16600
C858        C  0.15389108  0.44722022  0.24067976     0.07400
C859        C  0.16548562  0.41669538  0.23801920     0.09300
C860        C  0.17430680  0.39016560  0.23736200    -0.17500
C861        C  0.23834644  0.17570705  0.38879231    -0.16600
C862        C  0.23916173  0.16756723  0.41554309     0.07400
C863        C  0.24172828  0.15678384  0.44638563     0.09300
C864        C  0.24480176  0.14529312  0.47172571    -0.17500
C865        C  0.38938058  0.23824204  0.17371212    -0.16600
C866        C  0.41607625  0.23866958  0.16532859     0.07400
C867        C  0.44688968  0.24090829  0.15433575     0.09300
C868        C  0.47222097  0.24399427  0.14281063    -0.17500
C869        C  0.35480058  0.02698987  0.25339341    -0.16600
C870        C  0.34245661  0.05193816  0.25617391     0.07400
C871        C  0.33096346  0.08251972  0.25842797     0.09300
C872        C  0.32252478  0.10916644  0.25901206    -0.17500
C873        C  0.26028364  0.32473802  0.10862298    -0.16600
C874        C  0.25960616  0.33338508  0.08206349     0.07400
C875        C  0.25711379  0.34488012  0.05153366     0.09300
C876        C  0.25406330  0.35702186  0.02653539    -0.17500
C877        C  0.97849803  0.35881698  0.42949399    -0.16600
C878        C  0.98178410  0.33305978  0.41901577     0.07400
C879        C  0.98701284  0.30338661  0.40600667     0.09300
C880        C  0.99212462  0.27895729  0.39328486    -0.17500
C881        C  0.00294223  0.22372415  0.39442719    -0.16600
C882        C  0.00653665  0.19903069  0.40712882     0.07400
C883        C  0.00975916  0.16863176  0.41898180     0.09300
C884        C  0.01085861  0.14204471  0.42763991    -0.17500
C885        C  0.02686432  0.25604533  0.35660805    -0.16600
C886        C  0.05199022  0.25914951  0.34465294     0.07400
C887        C  0.08256253  0.26136094  0.33301747     0.09300
C888        C  0.10908524  0.26171766  0.32411089    -0.17500
C889        C  0.93409755  0.98072440  0.14331736    -0.16600
C890        C  0.92352676  0.98456171  0.16895569     0.07400
C891        C  0.90979153  0.99027391  0.19820345     0.09300
C892        C  0.89588728  0.99527809  0.22200162    -0.17500
C893        C  0.89303033  0.00601493  0.27720596    -0.16600
C894        C  0.90474392  0.00987565  0.30237037     0.07400
C895        C  0.91619567  0.01296527  0.33298393     0.09300
C896        C  0.92496213  0.01378800  0.35957378    -0.17500
C897        C  0.81797780  0.10703283  0.22977779    -0.16600
C898        C  0.82876401  0.08136250  0.23274345     0.07400
C899        C  0.84241000  0.05189283  0.23751121     0.09300
C900        C  0.85581482  0.02776204  0.24232767    -0.17500
C901        C  0.89276884  0.23055038  0.31699877    -0.16600
C902        C  0.91851006  0.23434250  0.32727981     0.07400
C903        C  0.94787644  0.24005505  0.34067707     0.09300
C904        C  0.97174882  0.24526584  0.35433972    -0.17500
C905        C  0.60636330  0.26821992  0.18346177    -0.16600
C906        C  0.58069337  0.26448899  0.17294425     0.07400
C907        C  0.55138176  0.25902247  0.15927463     0.09300
C908        C  0.52751040  0.25416951  0.14545328    -0.17500
C909        C  0.02079302  0.35811357  0.93086430    -0.16600
C910        C  0.01734854  0.33238109  0.92043618     0.07400
C911        C  0.01208488  0.30277605  0.90737593     0.09300
C912        C  0.00701452  0.27839314  0.89459189    -0.17500
C913        C  0.98275855  0.14459304  0.93449728    -0.16600
C914        C  0.98602410  0.17024404  0.92379546     0.07400
C915        C  0.99093638  0.19955005  0.90992760     0.09300
C916        C  0.99547026  0.22348850  0.89612242    -0.17500
C917        C  0.10673861  0.23065172  0.81844765    -0.16600
C918        C  0.08105756  0.23404506  0.82907734     0.07400
C919        C  0.05162295  0.23927634  0.84261348     0.09300
C920        C  0.02760850  0.24431105  0.85613381    -0.17500
C921        C  0.24381384  0.35596838  0.97143769    -0.16600
C922        C  0.23883211  0.34228844  0.94756290     0.07400
C923        C  0.23357261  0.32852488  0.91833249     0.09300
C924        C  0.23012228  0.31786452  0.89272889    -0.17500
C925        C  0.26724347  0.18473028  0.60650623    -0.16600
C926        C  0.26366577  0.17453556  0.58070407     0.07400
C927        C  0.25857865  0.16124178  0.55118140     0.09300
C928        C  0.25408080  0.14763485  0.52713968    -0.17500
C929        C  0.50435513  0.27717857  0.60519865    -0.16600
C930        C  0.50904693  0.30101360  0.59123160     0.07400
C931        C  0.51419457  0.33031895  0.57737454     0.09300
C932        C  0.51765506  0.35595979  0.56665933    -0.17500
C933        C  0.49411286  0.22191431  0.60805911    -0.16600
C934        C  0.49091303  0.19668960  0.59630395     0.07400
C935        C  0.48848259  0.16605785  0.58479163     0.09300
C936        C  0.48786346  0.13950619  0.57593297    -0.17500
C937        C  0.39163582  0.27087360  0.68118299    -0.16600
C938        C  0.41737596  0.26731619  0.67071890     0.07400
C939        C  0.44700617  0.26189042  0.65763789     0.09300
C940        C  0.47137361  0.25676080  0.64477007    -0.17500
C941        C  0.25697846  0.85453104  0.97226242    -0.16600
C942        C  0.26205861  0.84088379  0.94833652     0.07400
C943        C  0.26729297  0.82700709  0.91907307     0.09300
C944        C  0.27058042  0.81628665  0.89342382    -0.17500
C945        C  0.35728679  0.93069959  0.02031619    -0.16600
C946        C  0.33164909  0.92007147  0.01660315     0.07400
C947        C  0.30226682  0.90658729  0.01096013     0.09300
C948        C  0.27816074  0.89331336  0.00569761    -0.17500
C949        C  0.22335226  0.89336012  0.99317161    -0.16600
C950        C  0.19931185  0.90689872  0.98825702     0.07400
C951        C  0.17003864  0.92091263  0.98329747     0.09300
C952        C  0.14453104  0.93205553  0.98018333    -0.17500
C953        C  0.23119708  0.81759616  0.10636551    -0.16600
C954        C  0.23452387  0.82825403  0.08069570     0.07400
C955        C  0.23958544  0.84170244  0.05120766     0.09300
C956        C  0.24449695  0.85491267  0.02700188    -0.17500
C957        C  0.31740958  0.89230215  0.23052042    -0.16600
C958        C  0.32798928  0.91799232  0.23389180     0.07400
C959        C  0.34145997  0.94746853  0.23892015     0.09300
C960        C  0.35474061  0.97165910  0.24367930    -0.17500
C961        C  0.18241439  0.60603912  0.26815455    -0.16600
C962        C  0.17163702  0.58041656  0.26494871     0.07400
C963        C  0.15774203  0.55113454  0.26001941     0.09300
C964        C  0.14387617  0.52729062  0.25522745    -0.17500
C965        C  0.10823834  0.72951972  0.17977170    -0.16600
C966        C  0.08263124  0.73333430  0.16912052     0.07400
C967        C  0.05323823  0.73901404  0.15569368     0.09300
C968        C  0.02912258  0.74419866  0.14241523    -0.17500
C969        C  0.99648671  0.72298111  0.10316398    -0.16600
C970        C  0.99175622  0.69885685  0.08979669     0.07400
C971        C  0.98650184  0.66937713  0.07650039     0.09300
C972        C  0.98291337  0.64365886  0.06611827    -0.17500
C973        C  0.02082585  0.85747753  0.06700091    -0.16600
C974        C  0.01746826  0.83175062  0.07751075     0.07400
C975        C  0.01240847  0.80224496  0.09092605     0.09300
C976        C  0.00762770  0.77797908  0.10407685    -0.17500
C977        C  0.22985822  0.68361474  0.60594833    -0.16600
C978        C  0.23299668  0.67282320  0.58028051     0.07400
C979        C  0.23803274  0.65895396  0.55092890     0.09300
C980        C  0.24299320  0.64533036  0.52693316    -0.17500
C981        C  0.35543402  0.56774772  0.51964849    -0.16600
C982        C  0.32991527  0.57885626  0.51641481     0.07400
C983        C  0.30066186  0.59287930  0.51125662     0.09300
C984        C  0.27664310  0.60641845  0.50618125    -0.17500
C985        C  0.14290626  0.56838992  0.47906295    -0.16600
C986        C  0.16852070  0.57913071  0.48272798     0.07400
C987        C  0.19781480  0.59286648  0.48836531     0.09300
C988        C  0.22183791  0.60632836  0.49361117    -0.17500
C989        C  0.26892957  0.68092384  0.39211213    -0.16600
C990        C  0.26555132  0.67057313  0.41792927     0.07400
C991        C  0.26043850  0.65755120  0.44764731     0.09300
C992        C  0.25549538  0.64465932  0.47204838    -0.17500
C993        C  0.60685323  0.49326774  0.22231190    -0.16600
C994        C  0.59516360  0.48980436  0.19710377     0.07400
C995        C  0.58381637  0.48717163  0.16644841     0.09300
C996        C  0.57517000  0.48657583  0.13983713    -0.17500
C997        C  0.60388574  0.50387457  0.27743889    -0.16600
C998        C  0.58978224  0.50878872  0.30111795     0.07400
C999        C  0.57576215  0.51426622  0.33024291     0.09300
C1000       C  0.56500953  0.51794666  0.35580970    -0.17500
C1001       C  0.68112879  0.39177565  0.27064571    -0.16600
C1002       C  0.67041221  0.41741948  0.26740802     0.07400
C1003       C  0.65689910  0.44685619  0.26230685     0.09300
C1004       C  0.64366051  0.47101294  0.25728829    -0.17500
C1005       C  0.75576495  0.35689434  0.47189174    -0.16600
C1006       C  0.76099573  0.34310731  0.44802686     0.07400
C1007       C  0.76647743  0.32909598  0.41879070     0.09300
C1008       C  0.76998242  0.31809112  0.39324276    -0.17500
C1009       C  0.72133636  0.39535113  0.49229524    -0.16600
C1010       C  0.69675817  0.40785832  0.48714174     0.07400
C1011       C  0.66691450  0.42060621  0.48186060     0.09300
C1012       C  0.64102366  0.43082445  0.47849510    -0.17500
C1013       C  0.77649209  0.39718803  0.50379993    -0.16600
C1014       C  0.80061918  0.41069685  0.50846427     0.07400
C1015       C  0.83018092  0.42402462  0.51376027     0.09300
C1016       C  0.85598571  0.43432603  0.51741409    -0.17500
C1017       C  0.31841271  0.60747837  0.72831628    -0.16600
C1018       C  0.32908266  0.58179948  0.73177697     0.07400
C1019       C  0.34243992  0.55227514  0.73719274     0.09300
C1020       C  0.35536922  0.52793229  0.74233350    -0.17500
C1021       C  0.35401623  0.47292880  0.75421638    -0.16600
C1022       C  0.34060309  0.44888507  0.75943817     0.07400
C1023       C  0.32728252  0.41946300  0.76530405     0.09300
C1024       C  0.31689639  0.39375747  0.76926090    -0.17500
C1025       C  0.39289665  0.50522890  0.77640700    -0.16600
C1026       C  0.40546279  0.50852336  0.80123834     0.07400
C1027       C  0.41764821  0.51091213  0.83162834     0.09300
C1028       C  0.42678201  0.51136050  0.85810205    -0.17500
C1029       C  0.39351780  0.49358725  0.72133761    -0.16600
C1030       C  0.40687812  0.48833645  0.69726895     0.07400
C1031       C  0.42031784  0.48285589  0.66781930     0.09300
C1032       C  0.43082052  0.47932203  0.64209598    -0.17500
C1033       C  0.72999889  0.18171437  0.10736350    -0.16600
C1034       C  0.73372579  0.17097372  0.08175736     0.07400
C1035       C  0.73929647  0.15714823  0.05248729     0.09300
C1036       C  0.74443374  0.14342121  0.02859118    -0.17500
C1037       C  0.72311855  0.10358696  0.99653133    -0.16600
C1038       C  0.69882702  0.09033705  0.99189851     0.07400
C1039       C  0.66920392  0.07708738  0.98660888     0.09300
C1040       C  0.64344821  0.06664621  0.98289595    -0.17500
C1041       C  0.77842950  0.10478753  0.00781941    -0.16600
C1042       C  0.80300901  0.09217294  0.01273827     0.07400
C1043       C  0.83288027  0.07935796  0.01777902     0.09300
C1044       C  0.85877809  0.06909362  0.02102106    -0.17500
C1045       C  0.18244322  0.89315547  0.77125209    -0.16600
C1046       C  0.17182907  0.91889158  0.76788045     0.07400
C1047       C  0.15845556  0.94846995  0.76259756     0.09300
C1048       C  0.14541768  0.97280083  0.75755874    -0.17500
C1049       C  0.14616864  0.02788418  0.74554320    -0.16600
C1050       C  0.15916113  0.05218181  0.74034763     0.07400
C1051       C  0.17195566  0.08188810  0.73460471     0.09300
C1052       C  0.18196926  0.10776454  0.73069766    -0.17500
C1053       C  0.10739486  0.99511222  0.72369350    -0.16600
C1054       C  0.09475450  0.99153100  0.69890349     0.07400
C1055       C  0.08248053  0.98879024  0.66852077     0.09300
C1056       C  0.07327856  0.98812991  0.64203957    -0.17500
C1057       C  0.07064287  0.02202968  0.85840464    -0.16600
C1058       C  0.08106572  0.01827765  0.83265793     0.07400
C1059       C  0.09418850  0.01244123  0.80309503     0.09300
C1060       C  0.10721006  0.00697925  0.77886301    -0.17500
C1061       C  0.47187018  0.75383232  0.35375881    -0.16600
C1062       C  0.44773385  0.75884854  0.34044580     0.07400
C1063       C  0.41810521  0.76450622  0.32752640     0.09300
C1064       C  0.39227568  0.76836600  0.31743959    -0.17500
C1065       C  0.47816226  0.64158915  0.43056463    -0.16600
C1066       C  0.48172647  0.66722164  0.41983019     0.07400
C1067       C  0.48725261  0.69665055  0.40633173     0.09300
C1068       C  0.49248566  0.72084503  0.39316954    -0.17500
C1069       C  0.50837187  0.85805317  0.42689557    -0.16600
C1070       C  0.50777573  0.83149829  0.41806846     0.07400
C1071       C  0.50557415  0.80102132  0.40614280     0.09300
C1072       C  0.50278974  0.77616855  0.39353802    -0.17500
C1073       C  0.85914447  0.56790152  0.98042596    -0.16600
C1074       C  0.83327338  0.57773177  0.98428775     0.07400
C1075       C  0.80356684  0.59030169  0.98982229     0.09300
C1076       C  0.77924685  0.60318368  0.99476015    -0.17500
C1077       C  0.72399828  0.60370203  0.00473921    -0.16600
C1078       C  0.69900731  0.59156237  0.00795185     0.07400
C1079       C  0.66837203  0.58032093  0.01056382     0.09300
C1080       C  0.64166775  0.57209255  0.01125319    -0.17500
C1081       C  0.76463486  0.67307264  0.11052535    -0.16600
C1082       C  0.76382426  0.66443155  0.08394843     0.07400
C1083       C  0.76080884  0.65302806  0.05339589     0.09300
C1084       C  0.75710181  0.64105679  0.02838575    -0.17500
C1085       C  0.82393592  0.89028442  0.26002882    -0.16600
C1086       C  0.83248448  0.91692478  0.25902032     0.07400
C1087       C  0.84404398  0.94750175  0.25619346     0.09300
C1088       C  0.85629335  0.97248875  0.25297079    -0.17500
C1089       C  0.60968502  0.73679091  0.32384086    -0.16600
C1090       C  0.58309308  0.73744801  0.33268952     0.07400
C1091       C  0.55245593  0.74009428  0.34429867     0.09300
C1092       C  0.52726950  0.74346639  0.35616677    -0.17500
C1093       C  0.67760861  0.60770454  0.23923029    -0.16600
C1094       C  0.66871575  0.58120417  0.24030102     0.07400
C1095       C  0.65663754  0.55088832  0.24331815     0.09300
C1096       C  0.64393109  0.52617416  0.24667127    -0.17500
C1097       C  0.89219060  0.76116510  0.17559148    -0.16600
C1098       C  0.91867485  0.76077924  0.16650299     0.07400
C1099       C  0.94908222  0.75845171  0.15437618     0.09300
C1100       C  0.97392844  0.75523409  0.14184102    -0.17500
C1101       C  0.77667314  0.89365357  0.49523833    -0.16600
C1102       C  0.80146930  0.90618298  0.49160668     0.07400
C1103       C  0.83196465  0.91789789  0.48847480     0.09300
C1104       C  0.85857704  0.92655398  0.48751273    -0.17500
C1105       C  0.72101605  0.89264712  0.50440057    -0.16600
C1106       C  0.69583383  0.90440700  0.50788170     0.07400
C1107       C  0.66508357  0.91540816  0.51101813     0.09300
C1108       C  0.63837306  0.92370988  0.51217461    -0.17500
C1109       C  0.73816920  0.82335457  0.38962301    -0.16600
C1110       C  0.73901906  0.83153799  0.41637382     0.07400
C1111       C  0.74178670  0.84263897  0.44711201     0.09300
C1112       C  0.74499726  0.85473948  0.47216206    -0.17500
C1113       C  0.89691981  0.50597353  0.72143563    -0.16600
C1114       C  0.90972931  0.51081695  0.69702345     0.07400
C1115       C  0.92253790  0.51611493  0.66732456     0.09300
C1116       C  0.93266003  0.51968696  0.64149360    -0.17500
C1117       C  0.89751702  0.49531562  0.77657938    -0.16600
C1118       C  0.91065160  0.49071316  0.80086120     0.07400
C1119       C  0.92366604  0.48555390  0.83048783     0.09300
C1120       C  0.93389299  0.48195067  0.85627013    -0.17500
C1121       C  0.85887184  0.47276110  0.74421326    -0.16600
C1122       C  0.84618235  0.44803383  0.74082928     0.07400
C1123       C  0.83388221  0.41775398  0.73819248     0.09300
C1124       C  0.82464262  0.39134618  0.73759966    -0.17500
C1125       C  0.60895627  0.23890250  0.67751220    -0.16600
C1126       C  0.58226871  0.23998667  0.66912033     0.07400
C1127       C  0.55169038  0.24307486  0.65762775     0.09300
C1128       C  0.52678554  0.24643913  0.64524643    -0.17500
C1129       C  0.73750924  0.32561252  0.60931496    -0.16600
C1130       C  0.73819768  0.33472113  0.58279180     0.07400
C1131       C  0.74090921  0.34660128  0.55223402     0.09300
C1132       C  0.74434173  0.35869118  0.52713871    -0.17500
C1133       C  0.89044803  0.26372188  0.82511979    -0.16600
C1134       C  0.91700360  0.26282693  0.83393469     0.07400
C1135       C  0.94751421  0.25966441  0.84557356     0.09300
C1136       C  0.97250535  0.25583710  0.85763460    -0.17500
C1137       C  0.75563790  0.14194002  0.97341942    -0.16600
C1138       C  0.75915612  0.15433814  0.94850828     0.07400
C1139       C  0.76190633  0.16658137  0.91813233     0.09300
C1140       C  0.76256928  0.17591048  0.89170660    -0.17500
C1141       C  0.60461742  0.99428183  0.77919003    -0.16600
C1142       C  0.59144598  0.98927983  0.80339989     0.07400
C1143       C  0.57839216  0.98367654  0.83297146     0.09300
C1144       C  0.56815927  0.97987286  0.85874741    -0.17500
C1145       C  0.57303787  0.00986784  0.64147457    -0.16600
C1146       C  0.58174581  0.00913699  0.66806723     0.07400
C1147       C  0.59333199  0.00665323  0.69865542     0.09300
C1148       C  0.60550140  0.00371696  0.72371118    -0.17500
C1149       C  0.64257797  0.02804022  0.75684393    -0.16600
C1150       C  0.65467578  0.05310077  0.76020720     0.07400
C1151       C  0.66647734  0.08363496  0.76283138     0.09300
C1152       C  0.67545124  0.11016691  0.76346005    -0.17500
C1153       C  0.82514535  0.60945601  0.76290168    -0.16600
C1154       C  0.83405076  0.58296640  0.76186118     0.07400
C1155       C  0.84607395  0.55266952  0.75856267     0.09300
C1156       C  0.85870924  0.52801508  0.75463293    -0.17500
C1157       C  0.75413292  0.85509682  0.52785090    -0.16600
C1158       C  0.75790676  0.84315019  0.55291873     0.07400
C1159       C  0.76128296  0.83205140  0.58362869     0.09300
C1160       C  0.76254835  0.82379556  0.61036174    -0.17500
C1161       C  0.61010287  0.76193183  0.82519206    -0.16600
C1162       C  0.58342970  0.76134870  0.83369283     0.07400
C1163       C  0.55270033  0.75876374  0.84492378     0.09300
C1164       C  0.52749403  0.75529200  0.85665200    -0.17500
C1165       C  0.67761636  0.89079566  0.74007622    -0.16600
C1166       C  0.66895126  0.91738083  0.74118682     0.07400
C1167       C  0.65705208  0.94778575  0.74422987     0.09300
C1168       C  0.64425170  0.97246112  0.74759160    -0.17500
C1169       C  0.74716511  0.64242519  0.97304020    -0.16600
C1170       C  0.74342834  0.65511309  0.94838480     0.07400
C1171       C  0.74008680  0.66689796  0.91800929     0.09300
C1172       C  0.73892953  0.67555458  0.89144667    -0.17500
C1173       C  0.89180275  0.73789888  0.67699475    -0.16600
C1174       C  0.91835529  0.73846261  0.66814803     0.07400
C1175       C  0.94881462  0.74105221  0.65624329     0.09300
C1176       C  0.97369015  0.74453369  0.64384968    -0.17500
loop_ 
_geom_bond_atom_site_label_1 
_geom_bond_atom_site_label_2 
_geom_bond_distance 
_geom_bond_site_symmetry_2 
_ccdc_geom_bond_type 
O1           Mg3   2.135       .  S
O1           Mg9   2.144       .  S
O1           C36   1.238       .  S
C2           O15   1.238       .  S
C2           O39   1.272       .  A
C2           H41   1.082       .  S
Mg3          O32   2.144       .  S
Mg3          O47   2.324       .  S
Mg3          O43   2.263       .  S
Mg3          O14   2.302       .  S
O4          Mg46   2.144       .  S
O4          Mg29   2.140       .  S
O4           C25   1.238       .  S
O5           C36   1.272       .  A
O5          Mg29   2.299       .  S
C6            O8   1.272       .  A
C6           O20   1.276       .  A
C6         C1160   1.440       .  S
O7           C35   1.272       .  A
O7           Mg9   2.300       .  S
O8          Mg40   2.266       .  S
Mg9          O15   2.140       .  S
Mg9          O23   2.268       .  S
Mg9          O11   2.319       .  S
C10          O48   1.272       .  A
C10          O16   1.276       .  A
C10        C1173   1.440       .  S
O11          C18   1.275       .  A
H12          C25   1.082       .  S
C13          O27   1.238       .  S
C13          O28   1.272       .  A
C13          H38   1.082       .  S
O14          C37   1.272       .  A
O15         Mg29   2.146       .  S
O16         Mg46   2.322       .  S
C17          O30   1.271       .  A
C17          O22   1.275       .  A
C17        C1153   1.438       .  S
C18          O45   1.271       .  A
C18        C1172   1.437       .  S
Mg19         O26   2.140       .  S
Mg19         O27   2.144       .  S
Mg19         O20   2.325       .  S
Mg19         O21   2.303       .  S
Mg19         O48   2.268       .  S
O21          C25   1.272       .  A
O22         Mg29   2.320       .  S
O23          C42   1.272       .  A
O24          C44   1.276       .  A
O24         Mg40   2.323       .  S
O26         Mg40   2.145       .  S
O26          C37   1.238       .  S
O27         Mg46   2.138       .  S
O28         Mg40   2.302       .  S
Mg29         O45   2.262       .  S
O30         Mg46   2.263       .  S
H31          C36   1.082       .  S
O32         Mg40   2.140       .  S
O32          C35   1.238       .  S
H33          C35   1.082       .  S
H34          C37   1.082       .  S
O39         Mg46   2.302       .  S
C42          O47   1.276       .  A
C42        C1161   1.440       .  S
O43          C44   1.271       .  A
C44        C1165   1.439       .  S
C49        C1141   1.471       .  S
C49        C1148   1.471   1_565  S
C49        C1149   1.472   1_565  S
C49        C1168   1.471       .  S
O50         Mg52   2.141       .  S
O50         Mg58   2.146       .  S
O50          C85   1.238       .  S
C51          O64   1.238       .  S
C51          O88   1.273       .  A
C51          H90   1.081       .  S
Mg52         O81   2.146       .  S
Mg52         O96   2.330       .  S
Mg52         O92   2.266       .  S
Mg52         O63   2.304       .  S
O53         Mg95   2.145       .  S
O53         Mg78   2.144       .  S
O53          C74   1.238       .  S
O54          C85   1.272       .  A
O54         Mg78   2.302       .  S
C55          O57   1.271       .  A
C55          O69   1.276       .  A
C55        C1124   1.439       .  S
O56          C84   1.272       .  A
O56         Mg58   2.302       .  S
O57         Mg89   2.266       .  S
Mg58         O64   2.144       .  S
Mg58         O72   2.270       .  S
Mg58         O60   2.324       .  S
C59          O97   1.272       .  A
C59          O65   1.277       .  A
C59        C1129   1.444       .  S
O60          C67   1.276       .  A
H61          C74   1.082       .  S
C62          O76   1.238       .  S
C62          O77   1.272       .  A
C62          H87   1.081       .  S
O63          C86   1.272       .  A
O64         Mg78   2.146       .  S
O65         Mg95   2.333       .  S
C66          O79   1.272       .  A
C66          O71   1.276       .  A
C66        C1125   1.440       .  S
C67          O94   1.272       .  A
C67        C1152   1.441       .  S
Mg68         O75   2.145       .  S
Mg68         O76   2.144       .  S
Mg68         O69   2.321       .  S
Mg68         O70   2.301       .  S
Mg68         O97   2.272       .  S
O70          C74   1.272       .  A
O71         Mg78   2.324       .  S
O72          C91   1.272       .  A
O73          C93   1.276       .  A
O73         Mg89   2.324       .  S
O75         Mg89   2.147       .  S
O75          C86   1.238       .  S
O76         Mg95   2.137       .  S
O77         Mg89   2.300       .  S
Mg78         O94   2.269       .  S
O79         Mg95   2.265       .  S
H80          C85   1.082       .  S
O81         Mg89   2.144       .  S
O81          C84   1.238       .  S
H82          C84   1.082       .  S
H83          C86   1.081       .  S
O88         Mg95   2.304       .  S
C91          O96   1.277       .  A
C91        C1140   1.442       .  S
O92          C93   1.271       .  A
C93        C1133   1.440       .  S
C98        C1113   1.470       .  S
C98        C1117   1.469       .  S
C98        C1121   1.470       .  S
C98        C1156   1.469       .  S
C99        C1101   1.471       .  S
C99        C1105   1.471       .  S
C99        C1112   1.471       .  S
C99        C1157   1.471       .  S
O100       Mg102   2.137       .  S
O100       Mg108   2.145       .  S
O100        C135   1.238       .  S
C101        O114   1.238       .  S
C101        O138   1.272       .  A
C101        H140   1.082       .  S
Mg102       O131   2.144       .  S
Mg102       O146   2.325       .  S
Mg102       O142   2.265       .  S
Mg102       O113   2.302       .  S
O103       Mg145   2.145       .  S
O103       Mg128   2.141       .  S
O103        C124   1.238       .  S
O104        C135   1.272       .  A
O104       Mg128   2.300       .  S
C105        O107   1.272       .  A
C105        O119   1.275       .  A
C105       C1109   1.439       .  S
O106        C134   1.272       .  A
O106       Mg108   2.299       .  S
O107       Mg139   2.267       .  S
Mg108       O114   2.143       .  S
Mg108       O122   2.269       .  S
Mg108       O110   2.317       .  S
C109        O147   1.272       .  A
C109        O115   1.276       .  A
C109       C1089   1.443       .  S
O110        C117   1.275       .  A
H111        C124   1.082       .  S
C112        O126   1.238       .  S
C112        O127   1.272       .  A
C112        H137   1.082       .  S
O113        C136   1.272       .  A
O114       Mg128   2.146       .  S
O115       Mg145   2.329       .  S
C116        O129   1.271       .  A
C116        O121   1.276       .  A
C116       C1093   1.438       .  S
C117        O144   1.271       .  A
C117       C1081   1.437       .  S
Mg118       O125   2.143       .  S
Mg118       O126   2.144       .  S
Mg118       O119   2.320       .  S
Mg118       O120   2.302       .  S
Mg118       O147   2.271       .  S
O120        C124   1.272       .  A
O121       Mg128   2.322       .  S
O122        C141   1.272       .  A
O123        C143   1.276       .  A
O123       Mg139   2.325       .  S
O125       Mg139   2.146       .  S
O125        C136   1.238       .  S
O126       Mg145   2.137       .  S
O127       Mg139   2.301       .  S
Mg128       O144   2.264       .  S
O129       Mg145   2.262       .  S
H130        C135   1.082       .  S
O131       Mg139   2.139       .  S
O131        C134   1.238       .  S
H132        C134   1.081       .  S
H133        C136   1.081       .  S
O138       Mg145   2.303       .  S
C141        O146   1.276       .  A
C141       C1097   1.441       .  S
O142        C143   1.272       .  A
C143       C1085   1.440       .  S
C148       C1076   1.468   1_554  S
C148       C1077   1.468       .  S
C148       C1084   1.468       .  S
C148       C1169   1.468   1_554  S
C149       C1061   1.471       .  S
C149       C1068   1.472       .  S
C149       C1072   1.471       .  S
C149       C1092   1.474       .  S
C150       C1048   1.475   1_545  S
C150       C1049   1.473       .  S
C150       C1053   1.474   1_545  S
C150       C1060   1.474       .  S
C151       C1036   1.473       .  S
C151       C1037   1.474   1_554  S
C151       C1041   1.475       .  S
C151       C1137   1.473   1_554  S
C152       C1020   1.473       .  S
C152       C1021   1.472       .  S
C152       C1025   1.472       .  S
C152       C1029   1.472       .  S
C153       C1005   1.475       .  S
C153       C1009   1.474       .  S
C153       C1013   1.473       .  S
C153       C1132   1.475       .  S
C154        C993   1.470       .  S
C154        C997   1.470       .  S
C154       C1004   1.470       .  S
C154       C1096   1.469       .  S
C155        C980   1.473       .  S
C155        C984   1.473       .  S
C155        C988   1.473       .  S
C155        C992   1.473       .  S
C156        C968   1.471       .  S
C156        C969   1.469   1_455  S
C156        C976   1.471       .  S
C156       C1100   1.471   1_455  S
O157       Mg159   2.140       .  S
O157       Mg165   2.147       .  S
O157        C192   1.238       .  S
C158        O171   1.238       .  S
C158        O195   1.272       .  A
C158        H197   1.082       .  S
Mg159       O188   2.147       .  S
Mg159       O203   2.315       .  S
Mg159       O199   2.275       .  S
Mg159       O170   2.301       .  S
O160       Mg202   2.148       .  S
O160       Mg185   2.137       .  S
O160        C181   1.238       .  S
O161        C192   1.272       .  A
O161       Mg185   2.300       .  S
C162        O164   1.272       .  A
C162        O176   1.275       .  A
C162        C961   1.439       .  S
O163        C191   1.272       .  A
O163       Mg165   2.300       .  S
O164       Mg196   2.273       .  S
Mg165       O171   2.136       .  S
Mg165       O179   2.272       .  S
Mg165       O167   2.315       .  S
C166        O204   1.272       .  A
C166        O172   1.275       .  A
C166        C965   1.440       .  S
O167        C174   1.275       .  A
H168        C181   1.082       .  S
C169        O183   1.238       .  S
C169        O184   1.272       .  A
C169        H194   1.082       .  S
O170        C193   1.272       .  A
O171       Mg185   2.146       .  S
O172       Mg202   2.312       .  S
C173        O186   1.272       .  A
C173        O178   1.275       .  A
C173        C953   1.439       .  S
C174        O201   1.272       .  A
C174        C957   1.439       .  S
Mg175       O182   2.140       .  S
Mg175       O183   2.148       .  S
Mg175       O176   2.316       .  S
Mg175       O177   2.299       .  S
Mg175       O204   2.276       .  S
O177        C181   1.272       .  A
O178       Mg185   2.315       .  S
O179        C198   1.272       .  A
O180        C200   1.276       .  A
O180       Mg196   2.319       .  S
O182       Mg196   2.147       .  S
O182        C193   1.238       .  S
O183       Mg202   2.141       .  S
O184       Mg196   2.301       .  S
Mg185       O201   2.273       .  S
O186       Mg202   2.273       .  S
H187        C192   1.081       .  S
O188       Mg196   2.138       .  S
O188        C191   1.238       .  S
H189        C191   1.082       .  S
H190        C193   1.082       .  S
O195       Mg202   2.299       .  S
C198        O203   1.275       .  A
C198       C1064   1.440       .  S
O199        C200   1.272       .  A
C200        C989   1.441       .  S
C205        C941   1.471       .  S
C205        C948   1.471   1_556  S
C205        C949   1.472       .  S
C205        C956   1.471   1_556  S
C206        C929   1.471       .  S
C206        C933   1.471       .  S
C206        C940   1.473       .  S
C206       C1128   1.471       .  S
O207       Mg209   2.139       .  S
O207       Mg215   2.148       .  S
O207        C242   1.238       .  S
C208        O221   1.238       .  S
C208        O245   1.272       .  A
C208        H247   1.082       .  S
Mg209       O238   2.146       .  S
Mg209       O253   2.315       .  S
Mg209       O249   2.276       .  S
Mg209       O220   2.300       .  S
O210       Mg252   2.146       .  S
O210       Mg235   2.136       .  S
O210        C231   1.238       .  S
O211        C242   1.272       .  A
O211       Mg235   2.301       .  S
C212        O214   1.272       .  A
C212        O226   1.275       .  A
C212        C925   1.439       .  S
O213        C241   1.271       .  A
O213       Mg215   2.297       .  S
O214       Mg246   2.270       .  S
Mg215       O221   2.142       .  S
Mg215       O229   2.278       .  S
Mg215       O217   2.311       .  S
C216        O254   1.272       .  A
C216        O222   1.275       .  A
C216       C1052   1.441       .  S
O217        C224   1.275       .  A
H218        C231   1.082       .  S
C219        O233   1.238       .  S
C219        O234   1.272       .  A
C219        H244   1.082       .  S
O220        C243   1.272       .  A
O221       Mg235   2.148       .  S
O222       Mg252   2.317       .  S
C223        O236   1.272       .  A
C223        O228   1.275       .  A
C223        C917   1.441       .  S
C224        O251   1.271       .  A
C224        C924   1.437       .  S
Mg225       O232   2.140       .  S
Mg225       O233   2.147       .  S
Mg225       O226   2.314       .  S
Mg225       O227   2.300       .  S
Mg225       O254   2.277       .  S
O227        C231   1.272       .  A
O228       Mg235   2.317       .  S
O229        C248   1.273       .  A
O230        C250   1.276       .  A
O230       Mg246   2.318       .  S
O232       Mg246   2.147       .  S
O232        C243   1.238       .  S
O233       Mg252   2.138       .  S
O234       Mg246   2.301       .  S
Mg235       O251   2.269       .  S
O236       Mg252   2.274       .  S
H237        C242   1.082       .  S
O238       Mg246   2.135       .  S
O238        C241   1.238       .  S
H239        C241   1.082       .  S
H240        C243   1.081       .  S
O245       Mg252   2.302       .  S
C248        O253   1.275       .  A
C248       C1024   1.440       .  S
O249        C250   1.272       .  A
C250        C937   1.441       .  S
C255        C912   1.470       .  S
C255        C916   1.470   1_455  S
C255        C920   1.472       .  S
C255       C1136   1.471   1_455  S
O256       Mg258   2.138       .  S
O256       Mg264   2.146       .  S
O256        C291   1.238       .  S
C257        O270   1.238       .  S
C257        O294   1.272       .  A
C257        H296   1.082       .  S
Mg258       O287   2.150       .  S
Mg258       O302   2.317       .  S
Mg258       O298   2.271       .  S
Mg258       O269   2.300       .  S
O259       Mg301   2.148       .  S
O259       Mg284   2.141       .  S
O259        C280   1.238       .  S
O260        C291   1.272       .  A
O260       Mg284   2.299       .  S
C261        O263   1.273       .  A
C261        O275   1.276       .  A
C261       C1008   1.443       .  S
O262        C290   1.272       .  A
O262       Mg264   2.303       .  S
O263       Mg295   2.283       .  S
Mg264       O270   2.136       .  S
Mg264       O278   2.273       .  S
Mg264       O266   2.317       .  S
C265        O303   1.272       .  A
C265        O271   1.275       .  A
C265       C1001   1.439       .  S
O266        C273   1.275       .  A
H267        C280   1.082       .  S
C268        O282   1.238       .  S
C268        O283   1.272       .  A
C268        H293   1.082       .  S
O269        C292   1.272       .  A
O270       Mg284   2.148       .  S
O271       Mg301   2.314       .  S
C272        O285   1.272       .  A
C272        O277   1.275       .  A
C272        C905   1.439       .  S
C273        O300   1.273       .  A
C273       C1033   1.442       .  S
Mg274       O281   2.137       .  S
Mg274       O282   2.148       .  S
Mg274       O275   2.318       .  S
Mg274       O276   2.301       .  S
Mg274       O303   2.272       .  S
O276        C280   1.272       .  A
O277       Mg284   2.314       .  S
O278        C297   1.272       .  A
O279        C299   1.275       .  A
O279       Mg295   2.314       .  S
O281       Mg295   2.147       .  S
O281        C292   1.238       .  S
O282       Mg301   2.141       .  S
O283       Mg295   2.300       .  S
Mg284       O300   2.280       .  S
O285       Mg301   2.275       .  S
H286        C291   1.082       .  S
O287       Mg295   2.145       .  S
O287        C290   1.238       .  S
H288        C290   1.082       .  S
H289        C292   1.081       .  S
O294       Mg301   2.299       .  S
C297        O302   1.275       .  A
C297        C897   1.440       .  S
O298        C299   1.272       .  A
C299        C901   1.438       .  S
C304        C892   1.472   1_545  S
C304        C893   1.472       .  S
C304        C900   1.472       .  S
C304       C1088   1.471   1_545  S
C305        C880   1.472       .  S
C305        C881   1.470   1_655  S
C305        C885   1.470   1_655  S
C305        C904   1.470       .  S
O306       Mg308   2.140       .  S
O306       Mg314   2.147       .  S
O306        C341   1.238       .  S
C307        O320   1.238       .  S
C307        O344   1.272       .  A
C307        H346   1.081       .  S
Mg308       O337   2.145       .  S
Mg308       O352   2.314       .  S
Mg308       O348   2.268       .  S
Mg308       O319   2.298       .  S
O309       Mg351   2.145       .  S
O309       Mg334   2.137       .  S
O309        C330   1.238       .  S
O310        C341   1.272       .  A
O310       Mg334   2.301       .  S
C311        O313   1.271       .  A
C311        O325   1.275       .  A
C311        C872   1.437       .  S
O312        C340   1.272       .  A
O312       Mg314   2.299       .  S
O313       Mg345   2.263       .  S
Mg314       O320   2.138       .  S
Mg314       O328   2.260       .  S
Mg314       O316   2.318       .  S
C315        O353   1.271       .  A
C315        O321   1.275       .  A
C315        C861   1.438       .  S
O316        C323   1.275       .  A
H317        C330   1.081       .  S
C318        O332   1.238       .  S
C318        O333   1.272       .  A
C318        H343   1.082       .  S
O319        C342   1.271       .  A
O320       Mg334   2.145       .  S
O321       Mg351   2.317       .  S
C322        O335   1.271       .  A
C322        O327   1.275       .  A
C322        C888   1.439       .  S
C323        O350   1.271       .  A
C323        C860   1.438       .  S
Mg324       O331   2.136       .  S
Mg324       O332   2.145       .  S
Mg324       O325   2.316       .  S
Mg324       O326   2.300       .  S
Mg324       O353   2.264       .  S
O326        C330   1.272       .  A
O327       Mg334   2.319       .  S
O328        C347   1.271       .  A
O329        C349   1.275       .  A
O329       Mg345   2.320       .  S
O331       Mg345   2.144       .  S
O331        C342   1.238       .  S
O332       Mg351   2.139       .  S
O333       Mg345   2.301       .  S
Mg334       O350   2.263       .  S
O335       Mg351   2.266       .  S
H336        C341   1.082       .  S
O337       Mg345   2.135       .  S
O337        C340   1.238       .  S
H338        C340   1.082       .  S
H339        C342   1.081       .  S
O344       Mg351   2.300       .  S
C347        O352   1.275       .  A
C347        C873   1.436       .  S
O348        C349   1.272       .  A
C349        C865   1.439       .  S
C354        C852   1.467   1_556  S
C354        C856   1.468       .  S
C354        C876   1.467   1_556  S
C354        C921   1.468       .  S
C355        C844   1.470   1_565  S
C355        C848   1.470       .  S
C355        C869   1.469   1_565  S
C355        C960   1.470       .  S
O356       Mg358   2.138       .  S
O356       Mg364   2.144   1_545  S
O356        C391   1.238       .  S
C357        O370   1.238       .  S
C357        O394   1.272   1_655  A
C357        H396   1.081       .  S
Mg358       O387   2.145   1_655  S
Mg358       O402   2.326       .  S
Mg358       O398   2.263       .  S
Mg358       O369   2.303       .  S
O359       Mg401   2.144   1_655  S
O359       Mg384   2.142       .  S
O359        C380   1.238       .  S
O360        C391   1.272   1_565  A
O360       Mg384   2.302       .  S
C361        O363   1.271       .  A
C361        O375   1.276       .  A
C361        C837   1.440       .  S
O362        C390   1.272   1_665  A
O362       Mg364   2.302       .  S
O363       Mg395   2.265       .  S
Mg364       O370   2.143       .  S
Mg364       O378   2.268       .  S
Mg364       O366   2.323       .  S
C365        O403   1.272   1_565  A
C365        O371   1.277       .  A
C365       C1056   1.443       .  S
O366        C373   1.276       .  A
H367        C380   1.082       .  S
C368        O382   1.238       .  S
C368        O383   1.272   1_565  A
C368        H393   1.082       .  S
O369        C392   1.272   1_655  A
O370       Mg384   2.145       .  S
O371       Mg401   2.332       .  S
C372        O385   1.271   1_655  A
C372        O377   1.276       .  A
C372        C833   1.440       .  S
C373        O400   1.272       .  A
C373       C1104   1.440       .  S
Mg374       O381   2.143       .  S
Mg374       O382   2.144   1_545  S
Mg374       O375   2.324       .  S
Mg374       O376   2.302       .  S
Mg374       O403   2.270       .  S
O376        C380   1.272   1_445  A
O377       Mg384   2.325       .  S
O378        C397   1.272   1_565  A
O379        C399   1.276       .  A
O379       Mg395   2.323       .  S
O381       Mg395   2.146       .  S
O381        C392   1.238       .  S
O382       Mg401   2.138       .  S
O383       Mg395   2.301       .  S
Mg384       O400   2.267       .  S
O385       Mg401   2.264       .  S
H386        C391   1.081       .  S
O387       Mg395   2.141       .  S
O387        C390   1.238       .  S
H388        C390   1.082       .  S
H389        C392   1.082       .  S
O394       Mg401   2.304       .  S
C397        O402   1.276       .  A
C397        C896   1.441       .  S
O398        C399   1.271   1_655  A
C399        C884   1.439       .  S
O404       Mg406   2.143       .  S
O404       Mg412   2.150   1_455  S
O404        C439   1.239       .  S
C405        O418   1.238       .  S
C405        O442   1.272       .  A
C405        H444   1.082       .  S
Mg406       O435   2.148   1_545  S
Mg406       O450   2.317       .  S
Mg406       O446   2.278   1_545  S
Mg406       O417   2.300   1_556  S
O407       Mg449   2.146   1_545  S
O407       Mg432   2.137       .  S
O407        C428   1.239       .  S
O408        C439   1.273   1_554  A
O408       Mg432   2.303   1_455  S
C409        O411   1.272       .  A
C409        O423   1.275       .  A
C409        C973   1.439       .  S
O410        C438   1.272       .  A
O410       Mg412   2.298   1_465  S
O411       Mg443   2.274   1_554  S
Mg412       O418   2.145       .  S
Mg412       O426   2.282   1_655  S
Mg412       O414   2.314       .  S
C413        O451   1.272       .  A
C413        O419   1.275       .  A
C413        C889   1.440       .  S
O414        C421   1.275       .  A
H415        C428   1.082       .  S
C416        O430   1.238       .  S
C416        O431   1.272   1_554  A
C416        H441   1.082       .  S
O417        C440   1.272   1_545  A
O418       Mg432   2.148   1_556  S
O419       Mg449   2.314       .  S
C420        O433   1.273       .  A
C420        O425   1.276       .  A
C420       C1044   1.444       .  S
C421        O448   1.272       .  A
C421        C913   1.439       .  S
Mg422       O429   2.141       .  S
Mg422       O430   2.149   1_455  S
Mg422       O423   2.315       .  S
Mg422       O424   2.300   1_565  S
Mg422       O451   2.277   1_455  S
O424        C428   1.272   1_455  A
O425       Mg432   2.325       .  S
O426        C445   1.273       .  A
O427        C447   1.276       .  A
O427       Mg443   2.317       .  S
O429       Mg443   2.148   1_554  S
O429        C440   1.238       .  S
O430       Mg449   2.140       .  S
O431       Mg443   2.300   1_655  S
Mg432       O448   2.273   1_554  S
O433       Mg449   2.279   1_545  S
H434        C439   1.082       .  S
O435       Mg443   2.137       .  S
O435        C438   1.238       .  S
H436        C438   1.081       .  S
H437        C440   1.082       .  S
O442       Mg449   2.301   1_546  S
C445        O450   1.275       .  A
C445       C1057   1.442       .  S
O446        C447   1.273       .  A
C447        C952   1.441       .  S
O452       Mg454   2.139       .  S
O452       Mg460   2.145       .  S
O452        C487   1.238       .  S
C453        O466   1.238       .  S
C453        O490   1.272   1_565  A
C453        H492   1.082       .  S
Mg454       O483   2.145       .  S
Mg454       O498   2.321       .  S
Mg454       O494   2.266       .  S
Mg454       O465   2.302       .  S
O455       Mg497   2.146       .  S
O455       Mg480   2.140       .  S
O455        C476   1.238       .  S
O456        C487   1.272   1_545  A
O456       Mg480   2.302       .  S
C457        O459   1.271   1_545  A
C457        O471   1.276       .  A
C457       C1145   1.440       .  S
O458        C486   1.272       .  A
O458       Mg460   2.301       .  S
O459       Mg491   2.265       .  S
Mg460       O466   2.139       .  S
Mg460       O474   2.267       .  S
Mg460       O462   2.321       .  S
C461        O499   1.272       .  A
C461        O467   1.276       .  A
C461        C936   1.440       .  S
O462        C469   1.276       .  A
H463        C476   1.082       .  S
C464        O478   1.238       .  S
C464        O479   1.272   1_545  A
C464        H489   1.081       .  S
O465        C488   1.272   1_565  A
O466       Mg480   2.145   1_565  S
O467       Mg497   2.323       .  S
C468        O481   1.271       .  A
C468        O473   1.276       .  A
C468        C829   1.439       .  S
C469        O496   1.272   1_565  A
C469        C845   1.439       .  S
Mg470       O477   2.141       .  S
Mg470       O478   2.145       .  S
Mg470       O471   2.322       .  S
Mg470       O472   2.301       .  S
Mg470       O499   2.268       .  S
O472        C476   1.272       .  A
O473       Mg480   2.323       .  S
O474        C493   1.272       .  A
O475        C495   1.276       .  A
O475       Mg491   2.323       .  S
O477       Mg491   2.145   1_545  S
O477        C488   1.238       .  S
O478       Mg497   2.140       .  S
O479       Mg491   2.302       .  S
Mg480       O496   2.266       .  S
O481       Mg497   2.265       .  S
H482        C487   1.082       .  S
O483       Mg491   2.139       .  S
O483        C486   1.238       .  S
H484        C486   1.082       .  S
H485        C488   1.082       .  S
O490       Mg497   2.301       .  S
C493        O498   1.276       .  A
C493       C1069   1.440       .  S
O494        C495   1.271       .  A
C495       C1108   1.440       .  S
C500        C832   1.470       .  S
C500        C840   1.471       .  S
C500        C864   1.469       .  S
C500        C928   1.470       .  S
O501       Mg503   2.138       .  S
O501       Mg509   2.147   1_545  S
O501        C536   1.238       .  S
C502        O515   1.238       .  S
C502        O539   1.272   1_556  A
C502        H541   1.082       .  S
Mg503       O532   2.147   1_556  S
Mg503       O547   2.318       .  S
Mg503       O543   2.273   1_556  S
Mg503       O514   2.301   1_556  S
O504       Mg546   2.147   1_556  S
O504       Mg529   2.138       .  S
O504        C525   1.238       .  S
O505        C536   1.272       .  A
O505       Mg529   2.299   1_545  S
C506        O508   1.272       .  A
C506        O520   1.275       .  A
C506        C841   1.438       .  S
O507        C535   1.272   1_565  A
O507       Mg509   2.300   1_554  S
O508       Mg540   2.271       .  S
Mg509       O515   2.143       .  S
Mg509       O523   2.281   1_565  S
Mg509       O511   2.316       .  S
C510        O548   1.272       .  A
C510        O516   1.275       .  A
C510        C945   1.440       .  S
O511        C518   1.276       .  A
H512        C525   1.082       .  S
C513        O527   1.238       .  S
C513        O528   1.272       .  A
C513        H538   1.082       .  S
O514        C537   1.272       .  A
O515       Mg529   2.149       .  S
O516       Mg546   2.315       .  S
C517        O530   1.272       .  A
C517        O522   1.276       .  A
C517        C821   1.441       .  S
C518        O545   1.272       .  A
C518       C1144   1.440       .  S
Mg519       O526   2.141       .  S
Mg519       O527   2.148   1_545  S
Mg519       O520   2.313       .  S
Mg519       O521   2.299   1_544  S
Mg519       O548   2.276   1_545  S
O521        C525   1.272       .  A
O522       Mg529   2.318       .  S
O523        C542   1.273       .  A
O524        C544   1.275       .  A
O524       Mg540   2.317       .  S
O526       Mg540   2.148       .  S
O526        C537   1.238       .  S
O527       Mg546   2.139       .  S
O528       Mg540   2.301   1_565  S
Mg529       O545   2.273       .  S
O530       Mg546   2.277   1_556  S
H531        C536   1.081       .  S
O532       Mg540   2.138       .  S
O532        C535   1.238       .  S
H533        C535   1.082       .  S
H534        C537   1.082       .  S
O539       Mg546   2.300       .  S
C542        O547   1.276       .  A
C542       C1040   1.443       .  S
O543        C544   1.272       .  A
C544        C825   1.440       .  S
C549        C817   1.469       .  S
C549        C828   1.471       .  S
C549        C868   1.470       .  S
C549        C908   1.471       .  S
O550       Mg552   2.140       .  S
O550       Mg558   2.144   1_554  S
O550        C585   1.238       .  S
C551        O564   1.238       .  S
C551        O588   1.272       .  A
C551        H590   1.082       .  S
Mg552       O581   2.144       .  S
Mg552       O596   2.315       .  S
Mg552       O592   2.266       .  S
Mg552       O563   2.301       .  S
O553       Mg595   2.144       .  S
O553       Mg578   2.135       .  S
O553        C574   1.238       .  S
O554        C585   1.272   1_556  A
O554       Mg578   2.302       .  S
C555        O557   1.271       .  A
C555        O569   1.276       .  A
C555        C820   1.438       .  S
O556        C584   1.272   1_556  A
O556       Mg558   2.303       .  S
O557       Mg589   2.261       .  S
Mg558       O564   2.138       .  S
Mg558       O572   2.263       .  S
Mg558       O560   2.324       .  S
C559        O597   1.271   1_556  A
C559        O565   1.275       .  A
C559        C853   1.437       .  S
O560        C567   1.276       .  A
H561        C574   1.082       .  S
C562        O576   1.238       .  S
C562        O577   1.272   1_556  A
C562        H587   1.081       .  S
O563        C586   1.272       .  A
O564       Mg578   2.144       .  S
O565       Mg595   2.316       .  S
C566        O579   1.272       .  A
C566        O571   1.276       .  A
C566       C1028   1.441       .  S
C567        O594   1.271       .  A
C567        C816   1.439       .  S
Mg568       O575   2.139       .  S
Mg568       O576   2.146   1_554  S
Mg568       O569   2.321       .  S
Mg568       O570   2.300       .  S
Mg568       O597   2.264       .  S
O570        C574   1.272   1_554  A
O571       Mg578   2.324       .  S
O572        C591   1.271   1_556  A
O573        C593   1.275       .  A
O573       Mg589   2.321       .  S
O575       Mg589   2.145       .  S
O575        C586   1.238       .  S
O576       Mg595   2.139       .  S
O577       Mg589   2.301       .  S
Mg578       O594   2.261       .  S
O579       Mg595   2.268       .  S
H580        C585   1.082       .  S
O581       Mg589   2.137       .  S
O581        C584   1.238       .  S
H582        C584   1.082       .  S
H583        C586   1.081       .  S
O588       Mg595   2.300       .  S
C591        O596   1.275       .  A
C591       C1080   1.437       .  S
O592        C593   1.271       .  A
C593        C996   1.439       .  S
O598       Mg600   2.142       .  S
O598       Mg606   2.148   1_655  S
O598        C633   1.238       .  S
C599        O612   1.238       .  S
C599        O636   1.272       .  A
C599        H638   1.082       .  S
Mg600       O629   2.148       .  S
Mg600       O644   2.314       .  S
Mg600       O640   2.279       .  S
Mg600       O611   2.299       .  S
O601       Mg643   2.149       .  S
O601       Mg626   2.141       .  S
O601        C622   1.238       .  S
O602        C633   1.272       .  A
O602       Mg626   2.300   1_655  S
C603        O605   1.272       .  A
C603        O617   1.276       .  A
C603        C877   1.441       .  S
O604        C632   1.272   1_455  A
O604       Mg606   2.300       .  S
O605       Mg637   2.275       .  S
Mg606       O612   2.136       .  S
Mg606       O620   2.270   1_455  S
Mg606       O608   2.318       .  S
C607        O645   1.272       .  A
C607        O613   1.275       .  A
C607        C809   1.438       .  S
O608        C615   1.276       .  A
H609        C622   1.082       .  S
C610        O624   1.238       .  S
C610        O625   1.272       .  A
C610        H635   1.082       .  S
O611        C634   1.272       .  A
O612       Mg626   2.147       .  S
O613       Mg643   2.314       .  S
C614        O627   1.273       .  A
C614        O619   1.275       .  A
C614        C985   1.441       .  S
C615        O642   1.273       .  A
C615        C808   1.442       .  S
Mg616       O623   2.136       .  S
Mg616       O624   2.148   1_655  S
Mg616       O617   2.319       .  S
Mg616       O618   2.301       .  S
Mg616       O645   2.269   1_655  S
O618        C622   1.272   1_655  A
O619       Mg626   2.315       .  S
O620        C639   1.272       .  A
O621        C641   1.275       .  A
O621       Mg637   2.317       .  S
O623       Mg637   2.146       .  S
O623        C634   1.238       .  S
O624       Mg643   2.144       .  S
O625       Mg637   2.301   1_455  S
Mg626       O642   2.279       .  S
O627       Mg643   2.280       .  S
H628        C633   1.082       .  S
O629       Mg637   2.139       .  S
O629        C632   1.239       .  S
H630        C632   1.082       .  S
H631        C634   1.082       .  S
O636       Mg643   2.298       .  S
C639        O644   1.275       .  A
C639       C1116   1.438       .  S
O640        C641   1.273       .  A
C641       C1016   1.442       .  S
O646       Mg648   2.139       .  S
O646       Mg654   2.148       .  S
O646        C681   1.238       .  S
C647        O660   1.238       .  S
C647        O684   1.272   1_554  A
C647        H686   1.082       .  S
Mg648       O677   2.146   1_554  S
Mg648       O692   2.309       .  S
Mg648       O688   2.273   1_554  S
Mg648       O659   2.298   1_454  S
O649       Mg691   2.146   1_554  S
O649       Mg674   2.135       .  S
O649        C670   1.238       .  S
O650        C681   1.272       .  A
O650       Mg674   2.300   1_455  S
C651        O653   1.272       .  A
C651        O665   1.275       .  A
C651       C1120   1.438       .  S
O652        C680   1.272       .  A
O652       Mg654   2.300   1_556  S
O653       Mg685   2.269   1_655  S
Mg654       O660   2.135       .  S
Mg654       O668   2.268       .  S
Mg654       O656   2.315       .  S
C655        O693   1.271       .  A
C655        O661   1.275       .  A
C655       C1073   1.436       .  S
O656        C663   1.275       .  A
H657        C670   1.082       .  S
C658        O672   1.238       .  S
C658        O673   1.272   1_655  A
C658        H683   1.082       .  S
O659        C682   1.271       .  A
O660       Mg674   2.146   1_455  S
O661       Mg691   2.311       .  S
C662        O675   1.272       .  A
C662        O667   1.275       .  A
C662        C972   1.438       .  S
C663        O690   1.271       .  A
C663        C804   1.438       .  S
Mg664       O671   2.133       .  S
Mg664       O672   2.146       .  S
Mg664       O665   2.312       .  S
Mg664       O666   2.300   1_556  S
Mg664       O693   2.266       .  S
O666        C670   1.272       .  A
O667       Mg674   2.311       .  S
O668        C687   1.271       .  A
O669        C689   1.275       .  A
O669       Mg685   2.313       .  S
O671       Mg685   2.146   1_655  S
O671        C682   1.238       .  S
O672       Mg691   2.135       .  S
O673       Mg685   2.299       .  S
Mg674       O690   2.269   1_655  S
O675       Mg691   2.271   1_554  S
H676        C681   1.082       .  S
O677       Mg685   2.135       .  S
O677        C680   1.238       .  S
H678        C680   1.081       .  S
H679        C682   1.082       .  S
O684       Mg691   2.299   1_455  S
C687        O692   1.275       .  A
C687        C849   1.436       .  S
O688        C689   1.272       .  A
C689        C909   1.439       .  S
C694        C801   1.469       .  S
C694        C812   1.469       .  S
C694        C857   1.469       .  S
C694        C964   1.470       .  S
O695       Mg697   2.142       .  S
O695       Mg703   2.149       .  S
O695        C730   1.238       .  S
C696        O709   1.238       .  S
C696        O733   1.272       .  A
C696        H735   1.082       .  S
Mg697       O726   2.147       .  S
Mg697       O741   2.312       .  S
Mg697       O737   2.279       .  S
Mg697       O708   2.300       .  S
O698       Mg740   2.149       .  S
O698       Mg723   2.141       .  S
O698        C719   1.238       .  S
O699        C730   1.272       .  A
O699       Mg723   2.300       .  S
C700        O702   1.272       .  A
C700        O714   1.276       .  A
C700        C932   1.440       .  S
O701        C729   1.272       .  A
O701       Mg703   2.300       .  S
O702       Mg734   2.275       .  S
Mg703       O709   2.139       .  S
Mg703       O717   2.274       .  S
Mg703       O705   2.317       .  S
C704        O742   1.272       .  A
C704        O710   1.276       .  A
C704       C1032   1.441       .  S
O705        C712   1.276       .  A
H706        C719   1.081       .  S
C707        O721   1.238       .  S
C707        O722   1.272       .  A
C707        H732   1.082       .  S
O708        C731   1.272       .  A
O709       Mg723   2.148       .  S
O710       Mg740   2.317       .  S
C711        O724   1.273       .  A
C711        O716   1.276       .  A
C711        C981   1.442       .  S
C712        O739   1.273       .  A
C712       C1065   1.441       .  S
Mg713       O720   2.141       .  S
Mg713       O721   2.149       .  S
Mg713       O714   2.317       .  S
Mg713       O715   2.300       .  S
Mg713       O742   2.277       .  S
O715        C719   1.272       .  A
O716       Mg723   2.316       .  S
O717        C736   1.272       .  A
O718        C738   1.276       .  A
O718       Mg734   2.322       .  S
O720       Mg734   2.148       .  S
O720        C731   1.238       .  S
O721       Mg740   2.144       .  S
O722       Mg734   2.302       .  S
Mg723       O739   2.277       .  S
O724       Mg740   2.281       .  S
H725        C730   1.081       .  S
O726       Mg734   2.138       .  S
O726        C729   1.238       .  S
H727        C729   1.081       .  S
H728        C731   1.082       .  S
O733       Mg740   2.299       .  S
C736        O741   1.275       .  A
C736       C1000   1.439       .  S
O737        C738   1.273       .  A
C738       C1012   1.443       .  S
C743        C800   1.471       .  S
C743        C805   1.473       .  S
C743        C836   1.471   1_455  S
C743       C1176   1.471   1_455  S
O744       Mg746   2.141       .  S
O744       Mg752   2.148       .  S
O744        C779   1.238       .  S
C745        O758   1.238       .  S
C745        O782   1.272       .  A
C745        H784   1.082       .  S
Mg746       O775   2.147       .  S
Mg746       O790   2.315       .  S
Mg746       O786   2.281       .  S
Mg746       O757   2.300       .  S
O747       Mg789   2.148       .  S
O747       Mg772   2.138       .  S
O747        C768   1.238       .  S
O748        C779   1.272       .  A
O748       Mg772   2.301       .  S
C749        O751   1.272       .  A
C749        O763   1.275       .  A
C749        C797   1.439       .  S
O750        C778   1.272       .  A
O750       Mg752   2.300       .  S
O751       Mg783   2.273       .  S
Mg752       O758   2.141       .  S
Mg752       O766   2.276       .  S
Mg752       O754   2.314       .  S
C753        O791   1.273       .  A
C753        O759   1.276       .  A
C753        C977   1.442       .  S
O754        C761   1.275       .  A
H755        C768   1.082       .  S
C756        O770   1.239       .  S
C756        O771   1.272       .  A
C756        H781   1.081       .  S
O757        C780   1.272       .  A
O758       Mg772   2.148       .  S
O759       Mg789   2.318       .  S
C760        O773   1.273       .  A
C760        O765   1.276       .  A
C760       C1017   1.442       .  S
C761        O788   1.272       .  A
C761        C793   1.440       .  S
Mg762       O769   2.145       .  S
Mg762       O770   2.149       .  S
Mg762       O763   2.313       .  S
Mg762       O764   2.298       .  S
Mg762       O791   2.281       .  S
O764        C768   1.272       .  A
O765       Mg772   2.318       .  S
O766        C785   1.272       .  A
O767        C787   1.276       .  A
O767       Mg783   2.321       .  S
O769       Mg783   2.149       .  S
O769        C780   1.238       .  S
O770       Mg789   2.142       .  S
O771       Mg783   2.302       .  S
Mg772       O788   2.275       .  S
O773       Mg789   2.280       .  S
H774        C779   1.082       .  S
O775       Mg783   2.138       .  S
O775        C778   1.238       .  S
H776        C778   1.082       .  S
H777        C780   1.081       .  S
O782       Mg789   2.300       .  S
C785        O790   1.275       .  A
C785        C944   1.440       .  S
O786        C787   1.273       .  A
C787       C1045   1.443       .  S
C792        C796   1.472       .  S
C792        C813   1.470       .  S
C792        C824   1.472       .  S
C792       C1164   1.471       .  S
C793        C794   1.209       .  T
C794        C795   1.417       .  S
C795        C796   1.209       .  T
C797        C798   1.208       .  T
C798        C799   1.416       .  S
C799        C800   1.209       .  T
C801        C802   1.208       .  T
C802        C803   1.415       .  S
C803        C804   1.207       .  T
C805        C806   1.210       .  T
C806        C807   1.418       .  S
C807        C808   1.210       .  T
C809        C810   1.207       .  T
C810        C811   1.414       .  S
C811        C812   1.208       .  T
C813        C814   1.209       .  T
C814        C815   1.415       .  S
C815        C816   1.208       .  T
C817        C818   1.208       .  T
C818        C819   1.414       .  S
C819        C820   1.207       .  T
C821        C822   1.209       .  T
C822        C823   1.417       .  S
C823        C824   1.210       .  T
C825        C826   1.208       .  T
C826        C827   1.416       .  S
C827        C828   1.209       .  T
C829        C830   1.208       .  T
C830        C831   1.415       .  S
C831        C832   1.209       .  T
C833        C834   1.208       .  T
C834        C835   1.416       .  S
C835        C836   1.209       .  T
C837        C838   1.208       .  T
C838        C839   1.416       .  S
C839        C840   1.209       .  T
C841        C842   1.208       .  T
C842        C843   1.415       .  S
C843        C844   1.208       .  T
C845        C846   1.208       .  T
C846        C847   1.416       .  S
C847        C848   1.209       .  T
C849        C850   1.206       .  T
C850        C851   1.413       .  S
C851        C852   1.207       .  T
C853        C854   1.207       .  T
C854        C855   1.413       .  S
C855        C856   1.207       .  T
C857        C858   1.208       .  T
C858        C859   1.414       .  S
C859        C860   1.207       .  T
C861        C862   1.207       .  T
C862        C863   1.414       .  S
C863        C864   1.208       .  T
C865        C866   1.208       .  T
C866        C867   1.416       .  S
C867        C868   1.209       .  T
C869        C870   1.208       .  T
C870        C871   1.414       .  S
C871        C872   1.207       .  T
C873        C874   1.206       .  T
C874        C875   1.412       .  S
C875        C876   1.207       .  T
C877        C878   1.209       .  T
C878        C879   1.417       .  S
C879        C880   1.210       .  T
C881        C882   1.208       .  T
C882        C883   1.415       .  S
C883        C884   1.208       .  T
C885        C886   1.209       .  T
C886        C887   1.415       .  S
C887        C888   1.208       .  T
C889        C890   1.209       .  T
C890        C891   1.417       .  S
C891        C892   1.209       .  T
C893        C894   1.210       .  T
C894        C895   1.417       .  S
C895        C896   1.209       .  T
C897        C898   1.209       .  T
C898        C899   1.417       .  S
C899        C900   1.210       .  T
C901        C902   1.208       .  T
C902        C903   1.415       .  S
C903        C904   1.208       .  T
C905        C906   1.208       .  T
C906        C907   1.416       .  S
C907        C908   1.209       .  T
C909        C910   1.208       .  T
C910        C911   1.415       .  S
C911        C912   1.209       .  T
C913        C914   1.208       .  T
C914        C915   1.415       .  S
C915        C916   1.209       .  T
C917        C918   1.209       .  T
C918        C919   1.417       .  S
C919        C920   1.209       .  T
C921        C922   1.207       .  T
C922        C923   1.413       .  S
C923        C924   1.207       .  T
C925        C926   1.208       .  T
C926        C927   1.415       .  S
C927        C928   1.208       .  T
C929        C930   1.209       .  T
C930        C931   1.417       .  S
C931        C932   1.209       .  T
C933        C934   1.209       .  T
C934        C935   1.417       .  S
C935        C936   1.209       .  T
C937        C938   1.209       .  T
C938        C939   1.418       .  S
C939        C940   1.210       .  T
C941        C942   1.209       .  T
C942        C943   1.416       .  S
C943        C944   1.209       .  T
C945        C946   1.209       .  T
C946        C947   1.416       .  S
C947        C948   1.209       .  T
C949        C950   1.210       .  T
C950        C951   1.417       .  S
C951        C952   1.209       .  T
C953        C954   1.208       .  T
C954        C955   1.416       .  S
C955        C956   1.209       .  T
C957        C958   1.208       .  T
C958        C959   1.416       .  S
C959        C960   1.209       .  T
C961        C962   1.208       .  T
C962        C963   1.415       .  S
C963        C964   1.208       .  T
C965        C966   1.208       .  T
C966        C967   1.416       .  S
C967        C968   1.209       .  T
C969        C970   1.208       .  T
C970        C971   1.414       .  S
C971        C972   1.207       .  T
C973        C974   1.208       .  T
C974        C975   1.416       .  S
C975        C976   1.209       .  T
C977        C978   1.210       .  T
C978        C979   1.418       .  S
C979        C980   1.210       .  T
C981        C982   1.210       .  T
C982        C983   1.418       .  S
C983        C984   1.210       .  T
C985        C986   1.209       .  T
C986        C987   1.418       .  S
C987        C988   1.210       .  T
C989        C990   1.209       .  T
C990        C991   1.418       .  S
C991        C992   1.210       .  T
C993        C994   1.209       .  T
C994        C995   1.416       .  S
C995        C996   1.208       .  T
C997        C998   1.209       .  T
C998        C999   1.415       .  S
C999       C1000   1.208       .  T
C1001      C1002   1.208       .  T
C1002      C1003   1.415       .  S
C1003      C1004   1.209       .  T
C1005      C1006   1.211       .  T
C1006      C1007   1.420       .  S
C1007      C1008   1.210       .  T
C1009      C1010   1.211       .  T
C1010      C1011   1.419       .  S
C1011      C1012   1.210       .  T
C1013      C1014   1.210       .  T
C1014      C1015   1.418       .  S
C1015      C1016   1.210       .  T
C1017      C1018   1.210       .  T
C1018      C1019   1.418       .  S
C1019      C1020   1.210       .  T
C1021      C1022   1.209       .  T
C1022      C1023   1.417       .  S
C1023      C1024   1.209       .  T
C1025      C1026   1.210       .  T
C1026      C1027   1.417       .  S
C1027      C1028   1.209       .  T
C1029      C1030   1.210       .  T
C1030      C1031   1.417       .  S
C1031      C1032   1.209       .  T
C1033      C1034   1.210       .  T
C1034      C1035   1.418       .  S
C1035      C1036   1.210       .  T
C1037      C1038   1.211       .  T
C1038      C1039   1.419       .  S
C1039      C1040   1.210       .  T
C1041      C1042   1.211       .  T
C1042      C1043   1.420       .  S
C1043      C1044   1.211       .  T
C1045      C1046   1.211       .  T
C1046      C1047   1.420       .  S
C1047      C1048   1.211       .  T
C1049      C1050   1.210       .  T
C1050      C1051   1.418       .  S
C1051      C1052   1.209       .  T
C1053      C1054   1.211       .  T
C1054      C1055   1.419       .  S
C1055      C1056   1.210       .  T
C1057      C1058   1.210       .  T
C1058      C1059   1.419       .  S
C1059      C1060   1.211       .  T
C1061      C1062   1.209       .  T
C1062      C1063   1.416       .  S
C1063      C1064   1.208       .  T
C1065      C1066   1.209       .  T
C1066      C1067   1.418       .  S
C1067      C1068   1.210       .  T
C1069      C1070   1.208       .  T
C1070      C1071   1.416       .  S
C1071      C1072   1.209       .  T
C1073      C1074   1.206       .  T
C1074      C1075   1.413       .  S
C1075      C1076   1.207       .  T
C1077      C1078   1.207       .  T
C1078      C1079   1.413       .  S
C1079      C1080   1.206       .  T
C1081      C1082   1.207       .  T
C1082      C1083   1.414       .  S
C1083      C1084   1.208       .  T
C1085      C1086   1.208       .  T
C1086      C1087   1.416       .  S
C1087      C1088   1.209       .  T
C1089      C1090   1.210       .  T
C1090      C1091   1.419       .  S
C1091      C1092   1.211       .  T
C1093      C1094   1.207       .  T
C1094      C1095   1.414       .  S
C1095      C1096   1.208       .  T
C1097      C1098   1.209       .  T
C1098      C1099   1.417       .  S
C1099      C1100   1.209       .  T
C1101      C1102   1.209       .  T
C1102      C1103   1.416       .  S
C1103      C1104   1.209       .  T
C1105      C1106   1.209       .  T
C1106      C1107   1.416       .  S
C1107      C1108   1.209       .  T
C1109      C1110   1.208       .  T
C1110      C1111   1.416       .  S
C1111      C1112   1.209       .  T
C1113      C1114   1.208       .  T
C1114      C1115   1.415       .  S
C1115      C1116   1.207       .  T
C1117      C1118   1.208       .  T
C1118      C1119   1.414       .  S
C1119      C1120   1.207       .  T
C1121      C1122   1.209       .  T
C1122      C1123   1.415       .  S
C1123      C1124   1.208       .  T
C1125      C1126   1.208       .  T
C1126      C1127   1.416       .  S
C1127      C1128   1.209       .  T
C1129      C1130   1.211       .  T
C1130      C1131   1.420       .  S
C1131      C1132   1.211       .  T
C1133      C1134   1.208       .  T
C1134      C1135   1.416       .  S
C1135      C1136   1.209       .  T
C1137      C1138   1.210       .  T
C1138      C1139   1.418       .  S
C1139      C1140   1.210       .  T
C1141      C1142   1.209       .  T
C1142      C1143   1.416       .  S
C1143      C1144   1.208       .  T
C1145      C1146   1.208       .  T
C1146      C1147   1.416       .  S
C1147      C1148   1.209       .  T
C1149      C1150   1.210       .  T
C1150      C1151   1.418       .  S
C1151      C1152   1.209       .  T
C1153      C1154   1.207       .  T
C1154      C1155   1.414       .  S
C1155      C1156   1.208       .  T
C1157      C1158   1.209       .  T
C1158      C1159   1.417       .  S
C1159      C1160   1.209       .  T
C1161      C1162   1.209       .  T
C1162      C1163   1.417       .  S
C1163      C1164   1.209       .  T
C1165      C1166   1.208       .  T
C1166      C1167   1.416       .  S
C1167      C1168   1.209       .  T
C1169      C1170   1.208       .  T
C1170      C1171   1.414       .  S
C1171      C1172   1.207       .  T
C1173      C1174   1.208       .  T
C1174      C1175   1.416       .  S
C1175      C1176   1.209       .  T
