geometry optimzed in LAMMPS
_audit_creation_date              2020-11-30 
_audit_creation_method            'lammps2cif' 
_symmetry_space_group_name_H-M    'P1' 
_symmetry_Int_Tables_number       1 
_symmetry_cell_setting            triclinic 
loop_ 
_symmetry_equiv_pos_as_xyz 
  x,y,z 
_cell_length_a                    57.24237754 
_cell_length_b                    56.89749261532393 
_cell_length_c                    94.46088326504282 
_cell_angle_alpha                 89.97890454357159 
_cell_angle_beta                  90.01338721640045 
_cell_angle_gamma                 121.80933460612947 
loop_ 
_atom_site_label 
_atom_site_type_symbol 
_atom_site_fract_x 
_atom_site_fract_y 
_atom_site_fract_z 
_atom_site_charge 
N1          N  0.30224370  0.33444170  0.65163567    -0.26400
N2          N  0.31888546  0.35537061  0.64331174    -0.34200
C3          C  0.30396185  0.36014580  0.63417123     0.02000
C4          C  0.27654067  0.34160218  0.63692505     0.08000
C5          C  0.27603221  0.32563222  0.64812472    -0.05100
H6          H  0.31253867  0.37581217  0.62599195     0.08700
H7          H  0.25807714  0.30820736  0.65292123     0.09900
Cu8        Cu  0.36108457  0.37612707  0.64380078     0.44200
Cu9        Cu  0.31673868  0.31751529  0.66611627     0.42000
Cu10       Cu  0.39167442  0.34769369  0.66475408     0.43900
N11         N  0.40277402  0.39246728  0.64413627    -0.33800
N12         N  0.41437879  0.38178343  0.65169002    -0.28000
C13         C  0.44151836  0.39585738  0.64888650    -0.04100
C14         C  0.44694023  0.41632827  0.63919294     0.08100
C15         C  0.42202535  0.41357299  0.63634646     0.01900
H16         H  0.45597183  0.39098884  0.65322489     0.09500
H17         H  0.41796311  0.42527577  0.62877944     0.08600
N18         N  0.36461908  0.31436720  0.67739019    -0.35200
N19         N  0.33771891  0.30360688  0.67802602    -0.27400
C20         C  0.32676166  0.28259159  0.68739394    -0.02600
C21         C  0.34777001  0.28015989  0.69284510     0.06000
C22         C  0.37142192  0.30050202  0.68632215     0.04100
H23         H  0.30515198  0.27010123  0.69003501     0.09200
H24         H  0.39210405  0.30503524  0.68798435     0.08000
N25         N  0.05498978  0.33967737  0.64831904    -0.26400
N26         N  0.05836451  0.35860718  0.63902204    -0.34200
C27         C  0.07808480  0.36294664  0.62978545     0.02000
C28         C  0.08786694  0.34618853  0.63349327     0.08000
C29         C  0.07285743  0.33173026  0.64532381    -0.05100
H30         H  0.08502974  0.37754769  0.62111461     0.08700
H31         H  0.07451046  0.31633232  0.65118845     0.09900
Cu32       Cu  0.03692867  0.37865886  0.63938064     0.44200
Cu33       Cu  0.02528888  0.32513221  0.66418586     0.42000
Cu34       Cu  0.98560591  0.35893158  0.66630130     0.43900
N35         N  0.01425957  0.39719690  0.64167353    -0.33800
N36         N  0.99535881  0.39017177  0.65157376    -0.28000
C37         C  0.98343352  0.40502424  0.64969982    -0.04100
C38         C  0.99561742  0.42219510  0.63813611     0.08100
C39         C  0.01494683  0.41665274  0.63328143     0.01900
H40         H  0.96650221  0.40272298  0.65594178     0.09500
H41         H  0.02785091  0.42533687  0.62401593     0.08600
N42         N  0.97799944  0.32516569  0.67866353    -0.35200
N43         N  0.99227263  0.31294348  0.67788105    -0.27400
C44         C  0.98087940  0.29088637  0.68660406    -0.02600
C45         C  0.95845549  0.28918815  0.69313792     0.06000
C46         C  0.95720254  0.31117660  0.68791438     0.04100
H47         H  0.98794228  0.27670305  0.68777545     0.09200
H48         H  0.94183613  0.31618030  0.69032288     0.08000
N49         N  0.14421495  0.33875773  0.62144830    -0.26400
N50         N  0.14056124  0.35045357  0.61024077    -0.34200
C51         C  0.11978730  0.35437129  0.61281329     0.02000
C52         C  0.10967238  0.34453897  0.62620170     0.08000
C53         C  0.12552629  0.33466489  0.63138801    -0.05100
H54         H  0.11283118  0.36406496  0.60550578     0.08700
H55         H  0.12431086  0.32617069  0.64180290     0.09900
Cu56       Cu  0.16406440  0.36227943  0.59191363     0.44200
Cu57       Cu  0.17633851  0.33181954  0.62338896     0.42000
Cu58       Cu  0.22252526  0.35734882  0.59282910     0.43900
N59         N  0.19119035  0.37465242  0.57502861    -0.33800
N60         N  0.21314051  0.37265949  0.57539538    -0.28000
C61         C  0.22776668  0.38345579  0.56344924    -0.04100
C62         C  0.21422370  0.39260831  0.55520624     0.08100
C63         C  0.19115258  0.38678922  0.56280586     0.01900
H64         H  0.24714503  0.38520876  0.56115351     0.09500
H65         H  0.17591511  0.39167809  0.55987029     0.08600
N66         N  0.23083920  0.34492606  0.61168969    -0.35200
N67         N  0.21413272  0.33478159  0.62271583    -0.27400
C68         C  0.22726179  0.33057939  0.63334932    -0.02600
C69         C  0.25349140  0.33895456  0.62875450     0.06000
C70         C  0.25498832  0.34787741  0.61503304     0.04100
H71         H  0.21900636  0.32372507  0.64387945     0.09200
H72         H  0.27267157  0.35676306  0.60809131     0.08000
N73         N  0.97463707  0.64250809  0.65077432    -0.26400
N74         N  0.99593419  0.65373142  0.64210805    -0.34200
C75         C  0.99538584  0.63389202  0.63417339     0.02000
C76         C  0.97269513  0.60893814  0.63807064     0.08000
C77         C  0.95978084  0.61495205  0.64857456    -0.05100
H78         H  0.01050446  0.63740829  0.62622047     0.08700
H79         H  0.94119365  0.60049495  0.65422155     0.09900
Cu80       Cu  0.02516838  0.69531041  0.64189141     0.44200
Cu81       Cu  0.96867583  0.66653083  0.66514387     0.42000
Cu82       Cu  0.02335000  0.74120077  0.66761517     0.43900
N83         N  0.05425153  0.73686890  0.64307636    -0.33800
N84         N  0.05451565  0.75403325  0.65259293    -0.28000
C85         C  0.07650287  0.77956932  0.65011463    -0.04100
C86         C  0.09032705  0.77813191  0.63840917     0.08100
C87         C  0.07563538  0.75079579  0.63427748     0.01900
H88         H  0.08158155  0.79786207  0.65611319     0.09500
H89         H  0.08001141  0.74159958  0.62544999     0.08600
N90         N  0.98737259  0.72157622  0.67969297    -0.35200
N91         N  0.96795403  0.69501524  0.67863843    -0.27400
C92         C  0.94735960  0.68939948  0.68757293    -0.02600
C93         C  0.95404581  0.71341080  0.69454837     0.06000
C94         C  0.97947760  0.73345600  0.68936602     0.04100
H95         H  0.92876114  0.66930336  0.68879173     0.09200
H96         H  0.99123381  0.75509943  0.69226328     0.08000
N97         N  0.42772466  0.09238489  0.64858631    -0.26400
N98         N  0.41635401  0.07000618  0.64055227    -0.34200
C99         C  0.43590416  0.06974793  0.63285317     0.02000
C100        C  0.46074568  0.09298867  0.63624087     0.08000
C101        C  0.45503785  0.10707639  0.64619519    -0.05100
H102        H  0.43221730  0.05386841  0.62528724     0.08700
H103        H  0.46949089  0.12655366  0.65121006     0.09900
Cu104      Cu  0.37499510  0.04047441  0.64035543     0.44200
Cu105      Cu  0.40474895  0.10111185  0.66217023     0.42000
Cu106      Cu  0.33101137  0.04621930  0.66486990     0.43900
N107        N  0.33363830  0.01138603  0.64198826    -0.33800
N108        N  0.31710397  0.01267151  0.65127557    -0.28000
C109        C  0.29137193  0.99083052  0.64926955    -0.04100
C110        C  0.29196897  0.97544455  0.63805634     0.08100
C111        C  0.31906962  0.98907361  0.63375398     0.01900
H112        H  0.27345234  0.98719752  0.65505604     0.09500
H113        H  0.32755855  0.98356436  0.62505562     0.08600
N114        N  0.34984846  0.08356039  0.67581063    -0.35200
N115        N  0.37616678  0.10328320  0.67475216    -0.27400
C116        C  0.38124581  0.12439042  0.68329255    -0.02600
C117        C  0.35705013  0.11759096  0.68996770     0.06000
C118        C  0.33756925  0.09167112  0.68505147     0.04100
H119        H  0.40117351  0.14308909  0.68468117     0.09200
H120        H  0.31613725  0.07943572  0.68806882     0.08000
N121        N  0.24463076  0.91953004  0.61487590    -0.26400
N122        N  0.22855624  0.91383728  0.62604822    -0.34200
C123        C  0.24266734  0.93305292  0.63611086     0.02000
C124        C  0.26885505  0.95134726  0.63100519     0.08000
C125        C  0.26931387  0.94210744  0.61756520    -0.05100
H126        H  0.23470021  0.93325812  0.64646448     0.08700
H127        H  0.28635854  0.95114476  0.61020903     0.09900
Cu128      Cu  0.18909251  0.87884937  0.62736597     0.44200
Cu129      Cu  0.23367486  0.89692643  0.59629145     0.42000
Cu130      Cu  0.17071692  0.83241783  0.59707712     0.43900
N131        N  0.15334052  0.83984802  0.62618422    -0.33800
N132        N  0.14746665  0.82299520  0.61529918    -0.28000
C133        C  0.12419516  0.79885634  0.61802231    -0.04100
C134        C  0.11476781  0.80049654  0.63121404     0.08100
C135        C  0.13364452  0.82679723  0.63610952     0.01900
H136        H  0.11491535  0.78134320  0.61089612     0.09500
H137        H  0.13352045  0.83551450  0.64626371     0.08600
N138        N  0.19585788  0.84629094  0.57946942    -0.35200
N139        N  0.21921749  0.87049885  0.57908440    -0.27400
C140        C  0.23083445  0.87390638  0.56626657    -0.02600
C141        C  0.21383333  0.85066254  0.55830554     0.06000
C142        C  0.19189181  0.83353590  0.56693322     0.04100
H143        H  0.25021657  0.89183620  0.56304819     0.09200
H144        H  0.17438449  0.81334689  0.56433244     0.08000
N145        N  0.61379926  0.12225995  0.59113213    -0.35700
N146        N  0.57003360  0.10945516  0.61082356    -0.56300
N147        N  0.54617822  0.12683820  0.58958783    -0.35700
N148        N  0.58873537  0.13755158  0.56909555    -0.56300
C149        C  0.61782031  0.10738866  0.60093789     0.27900
C150        C  0.62888598  0.12441702  0.57964592     0.27900
C151        C  0.52548479  0.11479135  0.59912813     0.27900
C152        C  0.53535674  0.12929610  0.57737518     0.27900
C153        C  0.58650479  0.10592472  0.61961256     0.36500
C154        C  0.55092153  0.10985322  0.61898376     0.36500
C155        C  0.61420889  0.14866353  0.56359285     0.36500
C156        C  0.57727028  0.15014867  0.56252975     0.36500
C157        C  0.63547630  0.09981842  0.59551968    -0.21000
C158        C  0.64249983  0.11063637  0.58209344    -0.21000
C159        C  0.50117402  0.10925497  0.59284662    -0.21000
C160        C  0.50741048  0.11835364  0.57909276    -0.21000
C161        C  0.57764241  0.10369817  0.63348172    -0.22000
C162        C  0.55504873  0.10627575  0.63308764    -0.22000
C163        C  0.61871490  0.16793614  0.55326224    -0.22000
C164        C  0.59524272  0.16884511  0.55257238    -0.22000
C165        C  0.60804210  0.10266036  0.61503009    -0.17400
C166        C  0.63314248  0.14119804  0.56772669    -0.17400
C167        C  0.55078047  0.14486735  0.56552189    -0.17400
C168        C  0.52849127  0.11079680  0.61360629    -0.17400
H169        H  0.64310993  0.08830901  0.60081544     0.15500
H170        H  0.65656986  0.10913497  0.57504807     0.15500
H171        H  0.48114988  0.10020492  0.59775152     0.15500
H172        H  0.49322624  0.11795183  0.57137089     0.15500
H173        H  0.58627339  0.10015500  0.64284350     0.13800
H174        H  0.54270115  0.10498095  0.64207852     0.13800
H175        H  0.63712657  0.18045880  0.54705712     0.13800
H176        H  0.59209774  0.18222015  0.54575282     0.13800
H177        H  0.60469137  0.13369491  0.59285982     0.27100
H178        H  0.56703167  0.13668004  0.59186408     0.27100
N179        N  0.48548144  0.31100080  0.51943545    -0.26400
N180        N  0.49188288  0.30153054  0.53058059    -0.34200
C181        C  0.49964178  0.31964286  0.54125281     0.02000
C182        C  0.49819672  0.34197106  0.53674526     0.08000
C183        C  0.48915548  0.33580059  0.52277593    -0.05100
H184        H  0.50677795  0.31702352  0.55138643     0.08700
H185        H  0.48574944  0.34844289  0.51554419     0.09900
Cu186      Cu  0.49232111  0.26575752  0.53067169     0.44200
Cu187      Cu  0.47317132  0.28880276  0.50044070     0.42000
Cu188      Cu  0.47875086  0.22615827  0.49942622     0.43900
N189        N  0.49699543  0.23252679  0.52938408    -0.33800
N190        N  0.49243277  0.21764745  0.51786069    -0.28000
C191        C  0.49892067  0.19848369  0.52048266    -0.04100
C192        C  0.50805838  0.20166594  0.53439062     0.08100
C193        C  0.50650281  0.22352447  0.53961989     0.01900
H194        H  0.49737315  0.18366174  0.51278593     0.09500
H195        H  0.51256487  0.23298838  0.54996012     0.08600
N196        N  0.46446024  0.23951829  0.48306405    -0.35200
N197        N  0.46216597  0.26152630  0.48335036    -0.27400
C198        C  0.45129398  0.26298821  0.47097266    -0.02600
C199        C  0.44670760  0.24101208  0.46263671     0.06000
C200        C  0.45521017  0.22657261  0.47056158     0.04100
H201        H  0.44681869  0.27871536  0.46832056     0.09200
H202        H  0.45438372  0.20778690  0.46757832     0.08000
N203        N  0.57760964  0.48930109  0.57205214    -0.35700
N204        N  0.53260035  0.46050970  0.59192352    -0.56300
N205        N  0.55973980  0.50650912  0.61171208    -0.35700
N206        N  0.60569485  0.53437354  0.59240650    -0.56300
C207        C  0.56499943  0.46315158  0.56695560     0.27900
C208        C  0.60361535  0.50297284  0.56698385     0.27900
C209        C  0.53919757  0.48732892  0.61995017     0.27900
C210        C  0.57871476  0.52634601  0.62037907     0.27900
C211        C  0.52179647  0.44319248  0.58074314     0.36500
C212        C  0.51177242  0.45292850  0.60114663     0.36500
C213        C  0.62237346  0.54603957  0.58110838     0.36500
C214        C  0.61338551  0.55476086  0.60201771     0.36500
C215        C  0.58310035  0.46031270  0.55844691    -0.21000
C216        C  0.60745316  0.48542548  0.55846054    -0.21000
C217        C  0.54488438  0.49531507  0.63403010    -0.21000
C218        C  0.56988285  0.51994815  0.63430188    -0.21000
C219        C  0.49395128  0.42465426  0.58279948    -0.22000
C220        C  0.48757483  0.43081551  0.59572975    -0.22000
C221        C  0.64054912  0.57402940  0.58347561    -0.22000
C222        C  0.63496387  0.57953479  0.59676481    -0.22000
C223        C  0.53740197  0.44197019  0.56952281    -0.17400
C224        C  0.62379042  0.53103946  0.56958810    -0.17400
C225        C  0.60294460  0.55071149  0.61592098    -0.17400
C226        C  0.51493692  0.46359834  0.61498362    -0.17400
H227        H  0.57931027  0.44197411  0.55290986     0.15500
H228        H  0.62598343  0.49006725  0.55294606     0.15500
H229        H  0.53229441  0.48456812  0.64315512     0.15500
H230        H  0.58024979  0.53188761  0.64366787     0.15500
H231        H  0.47987586  0.40797556  0.57587659     0.13800
H232        H  0.46758215  0.41973163  0.60074990     0.13800
H233        H  0.65674866  0.58874710  0.57654143     0.13800
H234        H  0.64592409  0.59936949  0.60206351     0.13800
H235        H  0.56835810  0.49805363  0.57761872     0.27100
H236        H  0.55935942  0.50740580  0.60073787     0.27100
N237        N  0.75121987  0.57935605  0.51855570    -0.26400
N238        N  0.76227294  0.57673918  0.53024227    -0.34200
C239        C  0.74525176  0.57133334  0.54114340     0.02000
C240        C  0.72203846  0.57045535  0.53622957     0.08000
C241        C  0.72652815  0.57562446  0.52177168    -0.05100
H242        H  0.74925692  0.56722385  0.55175366     0.08700
H243        H  0.71279918  0.57621541  0.51411534     0.09900
Cu244      Cu  0.79847810  0.57756731  0.53108153     0.44200
Cu245      Cu  0.77113118  0.58704187  0.49913383     0.42000
Cu246      Cu  0.83714709  0.58837429  0.50001036     0.43900
N247        N  0.83107123  0.57201686  0.53046492    -0.33800
N248        N  0.84572285  0.57567573  0.51898896    -0.28000
C249        C  0.86395440  0.56813469  0.52187096    -0.04100
C250        C  0.86033163  0.55910236  0.53586383     0.08100
C251        C  0.83929449  0.56206475  0.54090386     0.01900
H252        H  0.87806982  0.56833271  0.51419841     0.09500
H253        H  0.83001779  0.55686955  0.55129739     0.08600
N254        N  0.82149496  0.59792452  0.48246108    -0.35200
N255        N  0.79782756  0.59693766  0.48207515    -0.27400
C256        C  0.79445476  0.60439664  0.46906655    -0.02600
C257        C  0.81695444  0.61030775  0.46095661     0.06000
C258        C  0.83370705  0.60609125  0.46971033     0.04100
H259        H  0.77713349  0.60589047  0.46585821     0.09200
H260        H  0.85345704  0.60899357  0.46707379     0.08000
N261        N  0.86797624  0.30567182  0.52003110    -0.26400
N262        N  0.85498162  0.29432065  0.53199792    -0.34200
C263        C  0.86553911  0.31322319  0.54234587     0.02000
C264        C  0.88633741  0.33807215  0.53676150     0.08000
C265        C  0.88732793  0.33243697  0.52250247    -0.05100
H266        H  0.85724711  0.30935986  0.55295487     0.08700
H267        H  0.90040192  0.34686269  0.51441726     0.09900
Cu268      Cu  0.82018236  0.25542872  0.53363179     0.44200
Cu269      Cu  0.85618414  0.28354284  0.50108364     0.42000
Cu270      Cu  0.78942160  0.21675665  0.50227528     0.43900
N271        N  0.78081412  0.22125769  0.53306223    -0.33800
N272        N  0.76895151  0.20716152  0.52142443    -0.28000
C273        C  0.74237841  0.18841176  0.52417851    -0.04100
C274        C  0.73722806  0.19098012  0.53828261     0.08100
C275        C  0.76224043  0.21202517  0.54353869     0.01900
H276        H  0.72779258  0.17475759  0.51631551     0.09500
H277        H  0.76646967  0.22123397  0.55395738     0.08600
N278        N  0.81564907  0.23118544  0.48504938    -0.35200
N279        N  0.83957647  0.25498632  0.48455835    -0.27400
C280        C  0.85161551  0.25682203  0.47202487    -0.02600
C281        C  0.83442765  0.23315819  0.46440026     0.06000
C282        C  0.81187033  0.21736174  0.47288564     0.04100
H283        H  0.87163075  0.27384061  0.46885139     0.09200
H284        H  0.79428536  0.19704406  0.47056427     0.08000
N285        N  0.95200191  0.46072778  0.59054111    -0.35700
N286        N  0.96091909  0.50187825  0.61131876    -0.56300
N287        N  0.93733565  0.52286282  0.59149354    -0.35700
N288        N  0.93074694  0.48304288  0.56998442    -0.56300
C289        C  0.96787902  0.45758510  0.60003579     0.27900
C290        C  0.95151794  0.44744323  0.57857190     0.27900
C291        C  0.94815265  0.54331252  0.60127211     0.27900
C292        C  0.93123145  0.53267211  0.57993632     0.27900
C293        C  0.96624591  0.48587346  0.61959460     0.36500
C294        C  0.95902142  0.51964851  0.61999957     0.36500
C295        C  0.92292947  0.45864146  0.56367373     0.36500
C296        C  0.91536823  0.49214385  0.56413757     0.36500
C297        C  0.97790547  0.44244069  0.59393513    -0.21000
C298        C  0.96758488  0.43606276  0.58038646    -0.21000
C299        C  0.94900067  0.56641576  0.59580267    -0.21000
C300        C  0.93824849  0.55965354  0.58236190    -0.21000
C301        C  0.96811032  0.49373300  0.63364067    -0.22000
C302        C  0.96360668  0.51524103  0.63389285    -0.22000
C303        C  0.90286876  0.45251375  0.55359426    -0.22000
C304        C  0.89821573  0.47386344  0.55382994    -0.22000
C305        C  0.97129483  0.46567756  0.61441761    -0.17400
C306        C  0.93393835  0.44207903  0.56687967    -0.17400
C307        C  0.91704786  0.51702384  0.56783560    -0.17400
C308        C  0.95515804  0.54095007  0.61534645    -0.17400
H309        H  0.99067802  0.43595849  0.59886727     0.15500
H310        H  0.97071214  0.42359958  0.57288112     0.15500
H311        H  0.95606654  0.58595340  0.60105071     0.15500
H312        H  0.93541329  0.57290821  0.57527506     0.15500
H313        H  0.97269505  0.48519751  0.64270321     0.13800
H314        H  0.96396537  0.52652916  0.64319519     0.13800
H315        H  0.89238359  0.43443977  0.54687785     0.13800
H316        H  0.88356749  0.47550983  0.54732856     0.13800
H317        H  0.93881779  0.46759392  0.59279953     0.27100
H318        H  0.93103869  0.50233606  0.59326101     0.27100
N319        N  0.72576417  0.00996986  0.64630545    -0.26400
N320        N  0.70649330  0.00713930  0.63749560    -0.34200
C321        C  0.69996291  0.98620403  0.62854363     0.02000
C322        C  0.71568875  0.97510162  0.63191855     0.08000
C323        C  0.73177310  0.99057490  0.64327834    -0.05100
H324        H  0.68478926  0.97952892  0.62021063     0.08700
H325        H  0.74711999  0.98833116  0.64872183     0.09900
Cu326      Cu  0.68946775  0.03146019  0.63807492     0.44200
Cu327      Cu  0.74362475  0.04130599  0.66140428     0.42000
Cu328      Cu  0.71473627  0.08549528  0.66417337     0.43900
N329        N  0.67365083  0.05655152  0.64083119    -0.33800
N330        N  0.68271955  0.07635054  0.65045440    -0.28000
C331        C  0.66888319  0.08940138  0.64913418    -0.04100
C332        C  0.65019488  0.07698002  0.63823695     0.08100
C333        C  0.65381129  0.05640491  0.63314920     0.01900
H334        H  0.67282533  0.10715392  0.65530253     0.09500
H335        H  0.64346760  0.04292568  0.62422457     0.08600
N336        N  0.74809941  0.09115421  0.67580415    -0.35200
N337        N  0.75868943  0.07538766  0.67479119    -0.27400
C338        C  0.78040163  0.08526574  0.68359213    -0.02600
C339        C  0.78345088  0.10818753  0.69040396     0.06000
C340        C  0.76273659  0.11137637  0.68526758     0.04100
H341        H  0.79300593  0.07643102  0.68489245     0.09200
H342        H  0.75864830  0.12728891  0.68812580     0.08000
N343        N  0.73447258  0.76488264  0.65045075    -0.26400
N344        N  0.71318328  0.74714507  0.64266703    -0.34200
C345        C  0.70769139  0.76092863  0.63309900     0.02000
C346        C  0.72611702  0.78880060  0.63493820     0.08000
C347        C  0.74280405  0.79077566  0.64610972    -0.05100
H348        H  0.69142673  0.75122640  0.62531361     0.08700
H349        H  0.76019698  0.80946579  0.65040103     0.09900
Cu350      Cu  0.69242864  0.70484068  0.64430832     0.44200
Cu351      Cu  0.75197759  0.75168183  0.66541285     0.42000
Cu352      Cu  0.72015911  0.67511226  0.66547268     0.43900
N353        N  0.67539315  0.66281271  0.64504955    -0.33800
N354        N  0.68585613  0.65125927  0.65280277    -0.28000
C355        C  0.67159511  0.62381798  0.65028316    -0.04100
C356        C  0.65120901  0.61817524  0.64054243     0.08100
C357        C  0.65427032  0.64329243  0.63739959     0.01900
H358        H  0.67630629  0.60931554  0.65480719     0.09500
H359        H  0.64276411  0.64728522  0.62970540     0.08600
N360        N  0.75425540  0.70320086  0.67730092    -0.35200
N361        N  0.76557726  0.73040712  0.67748993    -0.27400
C362        C  0.78701581  0.74154727  0.68653818    -0.02600
C363        C  0.78912560  0.72035030  0.69219993     0.06000
C364        C  0.76815976  0.69643277  0.68617173     0.04100
H365        H  0.79994104  0.76338833  0.68886295     0.09200
H366        H  0.76313846  0.67554425  0.68817887     0.08000
N367        N  0.72067170  0.91720637  0.61934020    -0.26400
N368        N  0.70736754  0.92013588  0.60870246    -0.34200
C369        C  0.70379869  0.94116956  0.61156573     0.02000
C370        C  0.71553604  0.95218416  0.62457222     0.08000
C371        C  0.72613913  0.93656896  0.62920702    -0.05100
H372        H  0.69324035  0.94781540  0.60469267     0.08700
H373        H  0.73638313  0.93861615  0.63916711     0.09900
Cu374      Cu  0.69347363  0.89515488  0.59085462     0.44200
Cu375      Cu  0.72856227  0.88547404  0.62043657     0.42000
Cu376      Cu  0.69916316  0.83574218  0.59146150     0.43900
N377        N  0.67929533  0.86641113  0.57458052    -0.33800
N378        N  0.68130413  0.84431499  0.57485473    -0.28000
C379        C  0.66936012  0.82905446  0.56319272    -0.04100
C380        C  0.65944438  0.84229866  0.55526152     0.08100
C381        C  0.66603029  0.86587752  0.56271211     0.01900
H382        H  0.66764454  0.80959953  0.56081745     0.09500
H383        H  0.66110851  0.88120948  0.55988141     0.08600
N384        N  0.71646296  0.83046432  0.60946010    -0.35200
N385        N  0.72789337  0.84857691  0.61988900    -0.27400
C386        C  0.73494299  0.83730550  0.63033270    -0.02600
C387        C  0.72714566  0.81077388  0.62628802     0.06000
C388        C  0.71561097  0.80722045  0.61302297     0.04100
H389        H  0.74306936  0.84685314  0.64051433     0.09200
H390        H  0.70600668  0.78857971  0.60668790     0.08000
O391        O  0.90745539  0.73920260  0.72900166    -0.72000
O392        O  0.85500669  0.73648274  0.75836100    -0.73000
O393        O  0.90365805  0.73439639  0.75887617    -0.61600
O394        O  0.85883452  0.74133378  0.72830898    -0.70000
O395        O  0.83351765  0.69553492  0.72646888    -0.69600
O396        O  0.87836037  0.68859521  0.75695391    -0.60800
O397        O  0.82976136  0.69070205  0.75648847    -0.73400
O398        O  0.88206968  0.69341849  0.72711471    -0.72100
Cu399      Cu  0.88209656  0.73946684  0.74371063     1.04600
Cu400      Cu  0.85500350  0.69045249  0.74169038     1.04300
C401        C  0.90304698  0.71667555  0.72355746     0.94200
C402        C  0.83421688  0.71317408  0.76203774     0.93300
C403        C  0.89823399  0.71043756  0.76255053     0.85500
C404        C  0.83916467  0.71947934  0.72259638     0.91700
O405        O  0.90718309  0.21058874  0.75517802    -0.72000
O406        O  0.85812925  0.15777512  0.72483011    -0.73000
O407        O  0.90795149  0.21105591  0.72515197    -0.61600
O408        O  0.85739514  0.15732499  0.75498791    -0.70000
O409        O  0.83332548  0.17774158  0.75477851    -0.69600
O410        O  0.88362004  0.23119645  0.72501878    -0.60800
O411        O  0.83398242  0.17812593  0.72477338    -0.73400
O412        O  0.88287049  0.23076662  0.75496134    -0.72100
Cu413      Cu  0.88351665  0.18344063  0.74003902     1.04600
Cu414      Cu  0.85758219  0.20511460  0.73987571     1.04300
C415        C  0.90287332  0.22915079  0.75966954     0.94200
C416        C  0.83825548  0.15965695  0.72012222     0.93300
C417        C  0.90393266  0.22979521  0.72059681     0.85500
C418        C  0.83731890  0.15909674  0.75948181     0.91700
O419        O  0.32489268  0.20670713  0.72722777    -0.72000
O420        O  0.32982922  0.15736852  0.75605129    -0.73000
O421        O  0.32692042  0.20584000  0.75724782    -0.61600
O422        O  0.32779932  0.15831498  0.72598432    -0.70000
O423        O  0.37341721  0.18453712  0.72532959    -0.69600
O424        O  0.37254233  0.23190286  0.75646734    -0.60800
O425        O  0.37543927  0.18353465  0.75531219    -0.73400
O426        O  0.37051295  0.23274313  0.72653699    -0.72100
Cu427      Cu  0.32573323  0.18110111  0.74167362     1.04600
Cu428      Cu  0.37456598  0.20907126  0.74089961     1.04300
C429        C  0.34700347  0.22747062  0.72238186     0.94200
C430        C  0.35339710  0.16270370  0.76015274     0.93300
C431        C  0.34961158  0.22653816  0.76159053     0.85500
C432        C  0.35081116  0.16407061  0.72076883     0.91700
N433        N  0.31134786  0.35070648  0.82234807    -0.26400
N434        N  0.32838233  0.37238899  0.83015220    -0.34200
C435        C  0.31384863  0.37926928  0.83838991     0.02000
C436        C  0.28628416  0.36123008  0.83567184     0.08000
C437        C  0.28531340  0.34343176  0.82534919    -0.05100
H438        H  0.32272215  0.39529575  0.84637570     0.08700
H439        H  0.26711409  0.32533949  0.82116893     0.09900
Cu440      Cu  0.37023941  0.38934168  0.83157732     0.44200
Cu441      Cu  0.32481191  0.32971443  0.81006574     0.42000
Cu442      Cu  0.39783569  0.35305883  0.81546392     0.43900
N443        N  0.41008449  0.39950004  0.83502597    -0.33800
N444        N  0.42039084  0.38580407  0.82918704    -0.28000
C445        C  0.44579099  0.39556415  0.83437284    -0.04100
C446        C  0.45153417  0.41638556  0.84386734     0.08100
C447        C  0.42854202  0.41834563  0.84409555     0.01900
H448        H  0.45863381  0.38744824  0.83180184     0.09500
H449        H  0.42501665  0.43165234  0.85075316     0.08600
N450        N  0.37064904  0.31979869  0.80298245    -0.35200
N451        N  0.34445081  0.31131517  0.80095022    -0.27400
C452        C  0.33303627  0.28890180  0.79248943    -0.02600
C453        C  0.35300033  0.28316002  0.78915817     0.06000
C454        C  0.37654415  0.30307712  0.79589396     0.04100
H455        H  0.31181379  0.27765298  0.78906081     0.09200
H456        H  0.39651638  0.30530068  0.79568954     0.08000
N457        N  0.05214806  0.33699553  0.83247161    -0.26400
N458        N  0.05464584  0.35456712  0.84237909    -0.34200
C459        C  0.07504666  0.35933337  0.85123339     0.02000
C460        C  0.08625993  0.34436277  0.84657493     0.08000
C461        C  0.07132791  0.33044747  0.83462726    -0.05100
H462        H  0.08175006  0.37334260  0.86015468     0.08700
H463        H  0.07407945  0.31652192  0.82805208     0.09900
Cu464      Cu  0.03187907  0.37311703  0.84276905     0.44200
Cu465      Cu  0.02205700  0.32282918  0.81688421     0.42000
Cu466      Cu  0.97990357  0.35434803  0.81624523     0.43900
N467        N  0.00935580  0.39177099  0.84091937    -0.33800
N468        N  0.99021695  0.38513212  0.83120472    -0.28000
C469        C  0.97826966  0.39980058  0.83357069    -0.04100
C470        C  0.99072087  0.41640615  0.84526400     0.08100
C471        C  0.01022223  0.41080873  0.84967059     0.01900
H472        H  0.96100036  0.39753576  0.82766261     0.09500
H473        H  0.02317443  0.41893216  0.85895343     0.08600
N474        N  0.97309394  0.32145007  0.80353384    -0.35200
N475        N  0.98834108  0.31024033  0.80372761    -0.27400
C476        C  0.97767379  0.28888714  0.79459720    -0.02600
C477        C  0.95473412  0.28661559  0.78842906     0.06000
C478        C  0.95234184  0.30747069  0.79427632     0.04100
H479        H  0.98575047  0.27570444  0.79280414     0.09200
H480        H  0.93647006  0.31190598  0.79215505     0.08000
N481        N  0.14752606  0.34327092  0.85587512    -0.26400
N482        N  0.14224128  0.35120476  0.86800632    -0.34200
C483        C  0.11946462  0.35224156  0.86654788     0.02000
C484        C  0.10968299  0.34430283  0.85293240     0.08000
C485        C  0.12785992  0.33863813  0.84643989    -0.05100
H486        H  0.11092087  0.35875671  0.87476527     0.08700
H487        H  0.12756238  0.33286733  0.83549934     0.09900
Cu488      Cu  0.16626206  0.36190425  0.88608912     0.44200
Cu489      Cu  0.18309398  0.34261989  0.85216175     0.42000
Cu490      Cu  0.23217951  0.37264133  0.88145012     0.43900
N491        N  0.19446166  0.37487396  0.90247908    -0.33800
N492        N  0.21933020  0.37925450  0.90066552    -0.28000
C493        C  0.23351017  0.38862262  0.91284399    -0.04100
C494        C  0.21661196  0.39010339  0.92274906     0.08100
C495        C  0.19203298  0.38129897  0.91588626     0.01900
H496        H  0.25461198  0.39429675  0.91428940     0.09500
H497        H  0.17396869  0.38019440  0.92019779     0.08600
N498        N  0.24100827  0.36339429  0.86176118    -0.35200
N499        N  0.22329544  0.35132167  0.85125119    -0.27400
C500        C  0.23637377  0.34807820  0.84023778    -0.02600
C501        C  0.26358553  0.35907293  0.84403584     0.06000
C502        C  0.26570870  0.36855641  0.85769403     0.04100
H503        H  0.22701752  0.33922055  0.83011682     0.09200
H504        H  0.28389346  0.37838563  0.86428841     0.08000
N505        N  0.60528255  0.10763800  0.89232138    -0.35700
N506        N  0.57812008  0.12008565  0.91472618    -0.56300
N507        N  0.53604058  0.11227278  0.89505066    -0.35700
N508        N  0.56395646  0.10127828  0.87228593    -0.56300
C509        C  0.62545909  0.11893575  0.90218365     0.27900
C510        C  0.61704272  0.10723586  0.87994471     0.27900
C511        C  0.53118014  0.12501185  0.90574576     0.27900
C512        C  0.52257805  0.11328470  0.88352900     0.27900
C513        C  0.59871632  0.12160144  0.92241462     0.36500
C514        C  0.56243970  0.12421182  0.92382835     0.36500
C515        C  0.57716117  0.09258807  0.86395135     0.36500
C516        C  0.54052323  0.09468159  0.86545995     0.36500
C517        C  0.65010115  0.12504346  0.89606380    -0.21000
C518        C  0.64476444  0.11754578  0.88208102    -0.21000
C519        C  0.51389752  0.13359140  0.90101038    -0.21000
C520        C  0.50836883  0.12608045  0.88703413    -0.21000
C521        C  0.59571576  0.12602094  0.93656682    -0.22000
C522        C  0.57270452  0.12767183  0.93745968    -0.22000
C523        C  0.56223235  0.08073307  0.85168853    -0.22000
C524        C  0.53897232  0.08202350  0.85265049    -0.22000
C525        C  0.62253759  0.12394479  0.91657653    -0.17400
C526        C  0.60335414  0.09696635  0.86687071    -0.17400
C527        C  0.52164510  0.10184865  0.87011480    -0.17400
C528        C  0.54170128  0.12909621  0.91969663    -0.17400
H529        H  0.66998120  0.13405190  0.90112672     0.15500
H530        H  0.65971898  0.11975610  0.87432984     0.15500
H531        H  0.50606356  0.14422470  0.90698192     0.15500
H532        H  0.49549816  0.12983984  0.88019652     0.15500
H533        H  0.60950750  0.12922542  0.94521409     0.13800
H534        H  0.56522147  0.13232444  0.94691947     0.13800
H535        H  0.56770902  0.07238183  0.84289527     0.13800
H536        H  0.52299071  0.07490299  0.84471860     0.13800
H537        H  0.58439084  0.09867596  0.89417179     0.27100
H538        H  0.54586589  0.10133654  0.89579343     0.27100
N539        N  0.85548360  0.30030017  0.96541150    -0.26400
N540        N  0.83593717  0.29329138  0.95596126    -0.34200
C541        C  0.84409515  0.31356102  0.94646436     0.02000
C542        C  0.87032382  0.33467366  0.94996055     0.08000
C543        C  0.87693663  0.32571863  0.96216369    -0.05100
H544        H  0.83175364  0.31268212  0.93757174     0.08700
H545        H  0.89611016  0.33641956  0.96795470     0.09900
Cu546      Cu  0.79982904  0.25598677  0.95551294     0.44200
Cu547      Cu  0.85032653  0.27275609  0.98135235     0.42000
Cu548      Cu  0.78501931  0.20219096  0.97936837     0.43900
N549        N  0.76488176  0.21781291  0.95422177    -0.33800
N550        N  0.75868948  0.19710985  0.96285408    -0.28000
C551        C  0.73385365  0.17534053  0.95916608    -0.04100
C552        C  0.72415643  0.18313446  0.94770481     0.08100
C553        C  0.74459866  0.21015159  0.94487423     0.01900
H554        H  0.72334863  0.15573170  0.96467610     0.09500
H555        H  0.74488811  0.22357759  0.93668151     0.08600
N556        N  0.81503324  0.21574552  0.99505972    -0.35200
N557        N  0.83791999  0.24053720  0.99572437    -0.27400
C558        C  0.85180993  0.24197239  0.00750555    -0.02600
C559        C  0.83706314  0.21708147  0.01451247     0.06000
C560        C  0.81390460  0.20091370  0.00643259     0.04100
H561        H  0.87105043  0.25999043  0.01080176     0.09200
H562        H  0.79725554  0.18005652  0.00871937     0.08000
N563        N  0.71488026  0.00274782  0.82823154    -0.26400
N564        N  0.69599120  0.00032436  0.83719293    -0.34200
C565        C  0.69017012  0.98008153  0.84649199     0.02000
C566        C  0.70596273  0.96900748  0.84319888     0.08000
C567        C  0.72131916  0.98375378  0.83150602    -0.05100
H568        H  0.67577428  0.97417640  0.85515891     0.08700
H569        H  0.73685788  0.98167260  0.82617248     0.09900
Cu570      Cu  0.67976414  0.02539233  0.83698970     0.44200
Cu571      Cu  0.73317363  0.03430955  0.81328222     0.42000
Cu572      Cu  0.71175789  0.08524348  0.81470532     0.43900
N573        N  0.66706615  0.05337148  0.83613524    -0.33800
N574        N  0.67889639  0.07581386  0.82813039    -0.28000
C575        C  0.66696726  0.09045691  0.83080179    -0.04100
C576        C  0.64664134  0.07627231  0.84087484     0.08100
C577        C  0.64734991  0.05300540  0.84403067     0.01900
H578        H  0.67321309  0.11028691  0.82612141     0.09500
H579        H  0.63517080  0.03746773  0.85190457     0.08600
N580        N  0.74419799  0.08949007  0.80245635    -0.35200
N581        N  0.75168872  0.07109015  0.80179482    -0.27400
C582        C  0.77345710  0.08065252  0.79304105    -0.02600
C583        C  0.77990145  0.10618886  0.78800825     0.06000
C584        C  0.76102004  0.11116210  0.79413654     0.04100
H585        H  0.78387757  0.06986852  0.79061249     0.09200
H586        H  0.75960852  0.12923701  0.79268160     0.08000
N587        N  0.73289672  0.75857236  0.83562997    -0.26400
N588        N  0.71307985  0.74196366  0.84445598    -0.34200
C589        C  0.70663498  0.75681497  0.85274953     0.02000
C590        C  0.72290398  0.78427528  0.84898605     0.08000
C591        C  0.73935734  0.78478620  0.83801421    -0.05100
H592        H  0.69094418  0.74810155  0.86086330     0.08700
H593        H  0.75504143  0.80280367  0.83237546     0.09900
Cu594      Cu  0.69464031  0.69971578  0.84492865     0.44200
Cu595      Cu  0.74926679  0.74283523  0.82131664     0.42000
Cu596      Cu  0.71527684  0.66566609  0.82121960     0.43900
N597        N  0.67639078  0.65749245  0.84460202    -0.33800
N598        N  0.68380068  0.64440362  0.83589136    -0.28000
C599        C  0.66858788  0.61710919  0.83875041    -0.04100
C600        C  0.65085168  0.61322207  0.84970791     0.08100
C601        C  0.65636260  0.63913787  0.85319227     0.01900
H602        H  0.67076932  0.60146044  0.83351376     0.09500
H603        H  0.64707610  0.64441442  0.86159309     0.08600
N604        N  0.74791048  0.69289902  0.80823439    -0.35200
N605        N  0.76019765  0.72023693  0.80832586    -0.27400
C606        C  0.78066673  0.73088739  0.79870530    -0.02600
C607        C  0.78116467  0.70932527  0.79230899     0.06000
C608        C  0.76021972  0.68559841  0.79855858     0.04100
H609        H  0.79420655  0.75272825  0.79656199     0.09200
H610        H  0.75443613  0.66454343  0.79633308     0.08000
N611        N  0.71366906  0.91372913  0.85753290    -0.26400
N612        N  0.70082292  0.91764999  0.86806667    -0.34200
C613        C  0.69642630  0.93786272  0.86453089     0.02000
C614        C  0.70710464  0.94738468  0.85119356     0.08000
C615        C  0.71802859  0.93174976  0.84705937    -0.05100
H616        H  0.68601792  0.94497391  0.87120259     0.08700
H617        H  0.72764878  0.93279489  0.83702771     0.09900
Cu618      Cu  0.68848751  0.89557415  0.88688483     0.44200
Cu619      Cu  0.72222561  0.88223064  0.85736578     0.42000
Cu620      Cu  0.69544376  0.83786777  0.88875444     0.43900
N621        N  0.67629312  0.87023632  0.90457690    -0.33800
N622        N  0.67893357  0.84856169  0.90525831    -0.28000
C623        C  0.66859110  0.83542822  0.91764637    -0.04100
C624        C  0.65901112  0.84959430  0.92506320     0.08100
C625        C  0.66417853  0.87155920  0.91651964     0.01900
H626        H  0.66769330  0.81672627  0.92088543     0.09500
H627        H  0.65911353  0.88703630  0.91868800     0.08600
N628        N  0.71120901  0.82939097  0.87104228    -0.35200
N629        N  0.72177344  0.84544803  0.85976486    -0.27400
C630        C  0.72891183  0.83258441  0.85024136    -0.02600
C631        C  0.72212284  0.80717615  0.85579637     0.06000
C632        C  0.71099605  0.80597059  0.86894520     0.04100
H633        H  0.73695822  0.84042616  0.83978340     0.09200
H634        H  0.70263759  0.78893110  0.87636348     0.08000
N635        N  0.94730154  0.45374288  0.89426445    -0.35700
N636        N  0.96058556  0.49718138  0.87392650    -0.56300
N637        N  0.94105991  0.52157471  0.89398948    -0.35700
N638        N  0.93050496  0.47973640  0.91518542    -0.56300
C639        C  0.96117177  0.44829816  0.88453187     0.27900
C640        C  0.94428870  0.43855344  0.90590419     0.27900
C641        C  0.95327801  0.54212245  0.88430158     0.27900
C642        C  0.93658033  0.53234267  0.90568362     0.27900
C643        C  0.96466976  0.48046577  0.86553750     0.36500
C644        C  0.96147230  0.51672159  0.86543478     0.36500
C645        C  0.92029106  0.45472301  0.92132222     0.36500
C646        C  0.91724381  0.49100465  0.92122805     0.36500
C647        C  0.96712143  0.42945412  0.89011528    -0.21000
C648        C  0.95639941  0.42326662  0.90359043    -0.21000
C649        C  0.95656277  0.56621899  0.88993129    -0.21000
C650        C  0.94603618  0.56003568  0.90342780    -0.21000
C651        C  0.96856834  0.48965415  0.85163918    -0.22000
C652        C  0.96655032  0.51267141  0.85157600    -0.22000
C653        C  0.90096883  0.45039363  0.93151084    -0.22000
C654        C  0.89904038  0.47339885  0.93144836    -0.22000
C655        C  0.96667527  0.45816123  0.87042163    -0.17400
C656        C  0.92817712  0.43572622  0.91786494    -0.17400
C657        C  0.92160441  0.51713574  0.91773018    -0.17400
C658        C  0.95980980  0.53925762  0.87022808    -0.17400
H659        H  0.97753430  0.42056052  0.88490806     0.15500
H660        H  0.95684336  0.40864989  0.91075253     0.15500
H661        H  0.96524405  0.58610780  0.88477704     0.15500
H662        H  0.94494231  0.57417186  0.91066555     0.15500
H663        H  0.97279575  0.48092305  0.84253817     0.13800
H664        H  0.96894381  0.52520758  0.84242347     0.13800
H665        H  0.88908463  0.43234913  0.93812773     0.13800
H666        H  0.88539344  0.47651536  0.93799893     0.13800
H667        H  0.93707314  0.46400115  0.89240284     0.27100
H668        H  0.93283419  0.50068439  0.89209152     0.27100
N669        N  0.75181425  0.57117611  0.96875953    -0.26400
N670        N  0.76314843  0.56918508  0.95703707    -0.34200
C671        C  0.74558817  0.56256370  0.94625256     0.02000
C672        C  0.72173556  0.56017057  0.95133668     0.08000
C673        C  0.72646756  0.56583608  0.96573089    -0.05100
H674        H  0.74966194  0.55856528  0.93563721     0.08700
H675        H  0.71241453  0.56546683  0.97350457     0.09900
Cu676      Cu  0.80033583  0.57189891  0.95630531     0.44200
Cu677      Cu  0.77180724  0.57914451  0.98803828     0.42000
Cu678      Cu  0.83597895  0.57678932  0.98783895     0.43900
N679        N  0.83375997  0.56761745  0.95678423    -0.33800
N680        N  0.84701338  0.56878963  0.96843069    -0.28000
C681        C  0.86621812  0.56279338  0.96520976    -0.04100
C682        C  0.86478117  0.55745441  0.95076394     0.08100
C683        C  0.84392317  0.56084602  0.94585443     0.01900
H684        H  0.87955259  0.56162838  0.97290838     0.09500
H685        H  0.83582590  0.55776641  0.93523193     0.08600
N686        N  0.82007686  0.58603607  0.00512542    -0.35200
N687        N  0.79745148  0.58702983  0.00520905    -0.27400
C688        C  0.79435437  0.59495133  0.01811511    -0.02600
C689        C  0.81591819  0.59895973  0.02641741     0.06000
C690        C  0.83187565  0.59326509  0.01796224     0.04100
H691        H  0.77798606  0.59816523  0.02108739     0.09200
H692        H  0.85102223  0.59493632  0.02077589     0.08000
N693        N  0.57589857  0.47790669  0.91526091    -0.35700
N694        N  0.60426398  0.52562549  0.89661356    -0.56300
N695        N  0.55971926  0.49938483  0.87637277    -0.35700
N696        N  0.53219657  0.45064334  0.89438094    -0.56300
C697        C  0.60163565  0.49098271  0.92070111     0.27900
C698        C  0.56293619  0.45133358  0.91971383     0.27900
C699        C  0.57874530  0.52093701  0.86853216     0.27900
C700        C  0.54016721  0.48111307  0.86738946     0.27900
C701        C  0.62076864  0.53573594  0.90806849     0.36500
C702        C  0.61205960  0.54725493  0.88782086     0.36500
C703        C  0.52073520  0.43215338  0.90505983     0.36500
C704        C  0.51211667  0.44354280  0.88472510     0.36500
C705        C  0.60492520  0.47258534  0.92880411    -0.21000
C706        C  0.58049511  0.44759125  0.92820616    -0.21000
C707        C  0.57094858  0.51653322  0.85440676    -0.21000
C708        C  0.54656182  0.49139669  0.85368692    -0.21000
C709        C  0.63894252  0.56399283  0.90664299    -0.22000
C710        C  0.63347358  0.57129516  0.89378452    -0.22000
C711        C  0.49327113  0.41322522  0.90219317    -0.22000
C712        C  0.48781203  0.42039621  0.88928720    -0.22000
C713        C  0.62203129  0.51922788  0.91882321    -0.17400
C714        C  0.53546186  0.43050815  0.91661523    -0.17400
C715        C  0.51600151  0.45622824  0.87136370    -0.17400
C716        C  0.60218851  0.54498552  0.87389640    -0.17400
H717        H  0.62310372  0.47663227  0.93448565     0.15500
H718        H  0.57628801  0.42872172  0.93332337     0.15500
H719        H  0.58160626  0.53009904  0.84554753     0.15500
H720        H  0.53480985  0.48185464  0.84416394     0.15500
H721        H  0.65506650  0.57772780  0.91389573     0.13800
H722        H  0.64453211  0.59178904  0.88917485     0.13800
H723        H  0.47884144  0.39571860  0.90858458     0.13800
H724        H  0.46831473  0.40949984  0.88377598     0.13800
H725        H  0.56689071  0.48713858  0.90990481     0.27100
H726        H  0.55857384  0.49853317  0.88735144     0.27100
N727        N  0.48421115  0.29987434  0.96644295    -0.26400
N728        N  0.49597556  0.29336691  0.95647059    -0.34200
C729        C  0.50496139  0.31225823  0.94611129     0.02000
C730        C  0.49872125  0.33189199  0.94967715     0.08000
C731        C  0.48568290  0.32350717  0.96272974    -0.05100
H732        H  0.51553518  0.31178352  0.93672931     0.08700
H733        H  0.47733731  0.33342839  0.96889124     0.09900
Cu734      Cu  0.49918452  0.25907400  0.95712198     0.44200
Cu735      Cu  0.46545717  0.27427687  0.98380750     0.42000
Cu736      Cu  0.46314742  0.20743225  0.98340660     0.43900
N737        N  0.50007199  0.22347940  0.95826038    -0.33800
N738        N  0.48624932  0.20368220  0.96765090    -0.28000
C739        C  0.49033577  0.18283246  0.96500140    -0.04100
C740        C  0.50785024  0.19020273  0.95345462     0.08100
C741        C  0.51350749  0.21609343  0.94950126     0.01900
H742        H  0.48132825  0.16385574  0.97104245     0.09500
H743        H  0.52584548  0.22842917  0.94063497     0.08600
N744        N  0.44380294  0.21857477  0.99817084    -0.35200
N745        N  0.44500180  0.24248869  0.99844720    -0.27400
C746        C  0.43028795  0.24254843  0.00952968    -0.02600
C747        C  0.41937952  0.21759237  0.01644312     0.06000
C748        C  0.42828996  0.20287843  0.00906621     0.04100
H749        H  0.42773636  0.25951325  0.01230900     0.09200
H750        H  0.42399642  0.18236738  0.01145832     0.08000
N751        N  0.97981815  0.63746215  0.83193263    -0.26400
N752        N  0.00317473  0.64974804  0.83907783    -0.34200
C753        C  0.00424347  0.63103799  0.84726070     0.02000
C754        C  0.98043954  0.60581036  0.84514201     0.08000
C755        C  0.96525625  0.61045165  0.83542237    -0.05100
H756        H  0.02064345  0.63572216  0.85461410     0.08700
H757        H  0.94489792  0.59559406  0.83151003     0.09900
Cu758      Cu  0.03116186  0.69178462  0.83858498     0.44200
Cu759      Cu  0.96913185  0.65913699  0.81849038     0.42000
Cu760      Cu  0.01857267  0.73511838  0.81670845     0.43900
N761        N  0.05541102  0.73436893  0.83887875    -0.33800
N762        N  0.05149075  0.75080092  0.83067939    -0.28000
C763        C  0.07050361  0.77732332  0.83386580    -0.04100
C764        C  0.08676756  0.77729024  0.84472632     0.08100
C765        C  0.07657155  0.74975689  0.84761331     0.01900
H766        H  0.07174525  0.79518025  0.82901949     0.09500
H767        H  0.08380065  0.74143184  0.85559632     0.08600
N768        N  0.98233863  0.71340632  0.80514231    -0.35200
N769        N  0.96463174  0.68634698  0.80585446    -0.27400
C770        C  0.94322484  0.67958077  0.79727561    -0.02600
C771        C  0.94772536  0.70344837  0.79095493     0.06000
C772        C  0.97259158  0.72448673  0.79609596     0.04100
H773        H  0.92561305  0.65886050  0.79587313     0.09200
H774        H  0.98273431  0.74627677  0.79360127     0.08000
N775        N  0.42246821  0.08705095  0.83506407    -0.26400
N776        N  0.40974960  0.06766059  0.84480676    -0.34200
C777        C  0.42851709  0.06689502  0.85298521     0.02000
C778        C  0.45418464  0.08669930  0.84811097     0.08000
C779        C  0.44981410  0.09926155  0.83679025    -0.05100
H780        H  0.42377689  0.05290433  0.86179047     0.08700
H781        H  0.46522500  0.11594160  0.83031158     0.09900
Cu782      Cu  0.36758745  0.04233044  0.84618595     0.44200
Cu783      Cu  0.40140256  0.09508666  0.81993113     0.42000
Cu784      Cu  0.32672869  0.04576667  0.81822459     0.43900
N785        N  0.32567461  0.01540445  0.84442199    -0.33800
N786        N  0.31051228  0.01556129  0.83391160    -0.28000
C787        C  0.28434179  0.99443837  0.83574068    -0.04100
C788        C  0.28317080  0.98067817  0.84807440     0.08100
C789        C  0.30970973  0.99456204  0.85326728     0.01900
H790        H  0.26742176  0.98980641  0.82878346     0.09500
H791        H  0.31704029  0.98972667  0.86272038     0.08600
N792        N  0.34831719  0.08037894  0.80527570    -0.35200
N793        N  0.37518848  0.09819953  0.80599604    -0.27400
C794        C  0.38228804  0.11860129  0.79655935    -0.02600
C795        C  0.35882161  0.11332262  0.78961248     0.06000
C796        C  0.33765596  0.08904943  0.79534612     0.04100
H797        H  0.40294347  0.13614668  0.79503722     0.09200
H798        H  0.31605792  0.07868643  0.79268996     0.08000
N799        N  0.23412265  0.92426497  0.87040562    -0.26400
N800        N  0.21917686  0.91808006  0.85875258    -0.34200
C801        C  0.23392104  0.93766767  0.84892447     0.02000
C802        C  0.25927026  0.95670042  0.85475561     0.08000
C803        C  0.25855689  0.94750933  0.86833827    -0.05100
H804        H  0.22713744  0.93747846  0.83821195     0.08700
H805        H  0.27485916  0.95667540  0.87612244     0.09900
Cu806      Cu  0.18065406  0.88167422  0.85671486     0.44200
Cu807      Cu  0.22300681  0.90071850  0.88853285     0.42000
Cu808      Cu  0.16367603  0.83435722  0.88701378     0.43900
N809        N  0.14598871  0.84161683  0.85780459    -0.33800
N810        N  0.14090554  0.82469796  0.86859103    -0.28000
C811        C  0.11886410  0.79977058  0.86559585    -0.04100
C812        C  0.10930405  0.80088323  0.85236747     0.08100
C813        C  0.12681777  0.82775491  0.84771205     0.01900
H814        H  0.11067358  0.78197088  0.87250627     0.09500
H815        H  0.12647225  0.83619480  0.83750479     0.08600
N816        N  0.18889866  0.84833295  0.90460531    -0.35200
N817        N  0.21110863  0.87340526  0.90516077    -0.27400
C818        C  0.22386608  0.87678600  0.91761138    -0.02600
C819        C  0.20878082  0.85261943  0.92520516     0.06000
C820        C  0.18677612  0.83493660  0.91672545     0.04100
H821        H  0.24285033  0.89526227  0.92077044     0.09200
H822        H  0.17067644  0.81387187  0.91907951     0.08000
N823        N  0.08327185  0.41988125  0.33256143    -0.26400
N824        N  0.06084126  0.40845792  0.34045948    -0.34200
C825        C  0.06069124  0.42809187  0.34826792     0.02000
C826        C  0.08408154  0.45308885  0.34514151     0.08000
C827        C  0.09812426  0.44731169  0.33518821    -0.05100
H828        H  0.04499582  0.42429786  0.35591166     0.08700
H829        H  0.11781052  0.46176487  0.33043546     0.09900
Cu830      Cu  0.03208478  0.36653407  0.34097950     0.44200
Cu831      Cu  0.09207471  0.39645050  0.31914160     0.42000
Cu832      Cu  0.04247530  0.32089811  0.31934224     0.43900
N833        N  0.00605970  0.32405188  0.34099658    -0.33800
N834        N  0.00928127  0.30700616  0.33291742    -0.28000
C835        C  0.98908184  0.28079100  0.33580430    -0.04100
C836        C  0.97271883  0.28159459  0.34633528     0.08100
C837        C  0.98407788  0.30929012  0.34934871     0.01900
H838        H  0.98713100  0.26257014  0.33101276     0.09500
H839        H  0.97715515  0.31812299  0.35720400     0.08600
N840        N  0.07791188  0.34080063  0.30713810    -0.35200
N841        N  0.09563927  0.36788545  0.30700426    -0.27400
C842        C  0.11592706  0.37364429  0.29779932    -0.02600
C843        C  0.11067910  0.34910284  0.29195628     0.06000
C844        C  0.08651030  0.32869025  0.29805278     0.04100
H845        H  0.13312864  0.39419895  0.29549552     0.09200
H846        H  0.07581543  0.30670114  0.29598366     0.08000
N847        N  0.63632624  0.97522167  0.33042805    -0.26400
N848        N  0.64783817  0.99513338  0.33999631    -0.34200
C849        C  0.62821618  0.99384890  0.34837642     0.02000
C850        C  0.60311269  0.97212162  0.34388195     0.08000
C851        C  0.60886784  0.96062322  0.33250697    -0.05100
H852        H  0.63204316  0.00738483  0.35728012     0.08700
H853        H  0.59432479  0.94267364  0.32642126     0.09900
Cu854      Cu  0.68981537  0.02242628  0.34164027     0.44200
Cu855      Cu  0.65970450  0.96881140  0.31571107     0.42000
Cu856      Cu  0.73534921  0.01617774  0.31783389     0.43900
N857        N  0.73206986  0.04867950  0.34194707    -0.33800
N858        N  0.74908614  0.04711269  0.33309896    -0.28000
C859        C  0.77500456  0.06773341  0.33605552    -0.04100
C860        C  0.77405006  0.08269682  0.34737861     0.08100
C861        C  0.74654511  0.06998731  0.35081861     0.01900
H862        H  0.79313965  0.07132982  0.33050749     0.09500
H863        H  0.73759055  0.07588983  0.35910673     0.08600
N864        N  0.71526241  0.98244873  0.30417490    -0.35200
N865        N  0.68820933  0.96564650  0.30331698    -0.27400
C866        C  0.68244414  0.94592309  0.29363113    -0.02600
C867        C  0.70692252  0.95052942  0.28820749     0.06000
C868        C  0.72729981  0.97376667  0.29508478     0.04100
H869        H  0.66194182  0.92923358  0.29090363     0.09200
H870        H  0.74927005  0.98351748  0.29370815     0.08000
N871        N  0.82012624  0.14026139  0.37015633    -0.26400
N872        N  0.83730008  0.14415748  0.35974697    -0.34200
C873        C  0.82381095  0.12395590  0.35005360     0.02000
C874        C  0.79692124  0.10685040  0.35457361     0.08000
C875        C  0.79538459  0.11784981  0.36730994    -0.05100
H876        H  0.83267696  0.12235963  0.34026131     0.08700
H877        H  0.77754013  0.11018271  0.37405821     0.09900
Cu878      Cu  0.87741171  0.17834164  0.35857092     0.44200
Cu879      Cu  0.82974501  0.16476348  0.38803002     0.42000
Cu880      Cu  0.89442859  0.22630602  0.38803455     0.43900
N881        N  0.91255773  0.21798949  0.35934734    -0.33800
N882        N  0.91757839  0.23526638  0.36992530    -0.28000
C883        C  0.93973760  0.26002327  0.36686988    -0.04100
C884        C  0.94947640  0.25843412  0.35380212     0.08100
C885        C  0.93192690  0.23144943  0.34929481     0.01900
H886        H  0.94794946  0.27798339  0.37365951     0.09500
H887        H  0.93245195  0.22265273  0.33923612     0.08600
N888        N  0.86840857  0.21442533  0.40515110    -0.35200
N889        N  0.84398808  0.19135790  0.40519129    -0.27400
C890        C  0.83145553  0.18929951  0.41758177    -0.02600
C891        C  0.84901107  0.21225223  0.42560488     0.06000
C892        C  0.87222273  0.22778756  0.41746994     0.04100
H893        H  0.81104985  0.17257601  0.42043338     0.09200
H894        H  0.89034456  0.24746219  0.42018566     0.08000
N895        N  0.37415892  0.40960484  0.32821103    -0.26400
N896        N  0.38199569  0.39876723  0.33808571    -0.34200
C897        C  0.40139238  0.41907563  0.34619955     0.02000
C898        C  0.40596060  0.44388371  0.34115157     0.08000
C899        C  0.38835383  0.43729558  0.32978193    -0.05100
H900        H  0.41080301  0.41590962  0.35534616     0.08700
H901        H  0.38546377  0.45138679  0.32342226     0.09900
Cu902      Cu  0.36437674  0.35677716  0.34038830     0.44200
Cu903      Cu  0.34302944  0.38485980  0.31405758     0.42000
Cu904      Cu  0.31120064  0.30884840  0.31608703     0.43900
N905        N  0.34597882  0.31450271  0.34124207    -0.33800
N906        N  0.32750189  0.29662779  0.33220097    -0.28000
C907        C  0.32167692  0.27103319  0.33561206    -0.04100
C908        C  0.33707333  0.27322356  0.34743775     0.08100
C909        C  0.35207064  0.30098920  0.35069019     0.01900
H910        H  0.30736520  0.25234040  0.32994684     0.09500
H911        H  0.36706031  0.31089823  0.35906747     0.08600
N912        N  0.29802308  0.32888523  0.30275868    -0.35200
N913        N  0.30962678  0.35609242  0.30213348    -0.27400
C914        C  0.29550321  0.36212405  0.29301379    -0.02600
C915        C  0.27407117  0.33769328  0.28767041     0.06000
C916        C  0.27613278  0.31696657  0.29400376     0.04100
H917        H  0.30024491  0.38280666  0.29066317     0.09200
H918        H  0.26250794  0.29489999  0.29257235     0.08000
N919        N  0.37956633  0.98266817  0.32988424    -0.26400
N920        N  0.38882683  0.00277344  0.33932268    -0.34200
C921        C  0.40806570  0.00249943  0.34734497     0.02000
C922        C  0.41104365  0.98127845  0.34265470     0.08000
C923        C  0.39262682  0.96893963  0.33164852    -0.05100
H924        H  0.41852626  0.01623963  0.35616733     0.08700
H925        H  0.38848819  0.95096037  0.32563002     0.09900
Cu926      Cu  0.37369009  0.02852978  0.34124573     0.44200
Cu927      Cu  0.34849915  0.97448411  0.31579871     0.42000
Cu928      Cu  0.31852702  0.01796431  0.31816543     0.43900
N929        N  0.35615080  0.05229113  0.34188518    -0.33800
N930        N  0.33646894  0.04921542  0.33330642    -0.28000
C931        C  0.33043018  0.06853903  0.33649502    -0.04100
C932        C  0.34695254  0.08416333  0.34770904     0.08100
C933        C  0.36290554  0.07324371  0.35083275     0.01900
H934        H  0.31495256  0.07077573  0.33119407     0.09500
H935        H  0.37853650  0.08017219  0.35893885     0.08600
N936        N  0.30435548  0.98396837  0.30480312    -0.35200
N937        N  0.31544948  0.96863737  0.30393619    -0.27400
C938        C  0.30115390  0.94813894  0.29458089    -0.02600
C939        C  0.28012663  0.95066905  0.28935983     0.06000
C940        C  0.28261003  0.97349108  0.29599625     0.04100
H941        H  0.30555740  0.93235204  0.29194888     0.09200
H942        H  0.26949471  0.98173076  0.29464915     0.08000
N943        N  0.39082506  0.19543477  0.40419977    -0.26400
N944        N  0.38968694  0.21802605  0.40394567    -0.34200
C945        C  0.40164920  0.23294877  0.41568882     0.02000
C946        C  0.41067313  0.21897819  0.42367962     0.08000
C947        C  0.40352725  0.19528055  0.41616408    -0.05100
H948        H  0.40334183  0.25231861  0.41826418     0.08700
H949        H  0.40710305  0.17908516  0.41917928     0.09900
Cu950      Cu  0.37127571  0.22671613  0.38769382     0.44200
Cu951      Cu  0.37476761  0.16640626  0.38804744     0.42000
Cu952      Cu  0.34102982  0.17817267  0.35825017     0.43900
N953        N  0.35254947  0.23219657  0.37040507    -0.33800
N954        N  0.34137769  0.21485430  0.35965056    -0.28000
C955        C  0.33273860  0.22605393  0.34995997    -0.04100
C956        C  0.33904741  0.25166799  0.35489348     0.08100
C957        C  0.35146774  0.25477211  0.36786128     0.01900
H958        H  0.32388768  0.21689952  0.33980378     0.09500
H959        H  0.36009827  0.27262247  0.37475059     0.08600
N960        N  0.34603586  0.14458048  0.35977256    -0.35200
N961        N  0.35866819  0.14085392  0.37048072    -0.27400
C962        C  0.36027918  0.11855644  0.36787861    -0.02600
C963        C  0.34797308  0.10754943  0.35498175     0.06000
C964        C  0.33901972  0.12444713  0.35013235     0.04100
H965        H  0.37016769  0.11121003  0.37479014     0.09200
H966        H  0.32912081  0.12288370  0.34011822     0.08000
N967        N  0.45025108  0.94073348  0.39063871    -0.35700
N968        N  0.49234952  0.95049180  0.37021380    -0.56300
N969        N  0.51641095  0.93294151  0.39126906    -0.35700
N970        N  0.47545218  0.92539367  0.41243220    -0.56300
C971        C  0.44595446  0.95480256  0.38048438     0.27900
C972        C  0.43663456  0.94071478  0.40234294     0.27900
C973        C  0.53681459  0.94401989  0.38149604     0.27900
C974        C  0.52694107  0.92925765  0.40328053     0.27900
C975        C  0.47515397  0.95309001  0.36150437     0.36500
C976        C  0.51111730  0.94966890  0.36192349     0.36500
C977        C  0.45073162  0.91620109  0.41853785     0.36500
C978        C  0.48608314  0.91188803  0.41888436     0.36500
C979        C  0.42964648  0.96408093  0.38587465    -0.21000
C980        C  0.42377546  0.95517323  0.39967350    -0.21000
C981        C  0.56059573  0.94743008  0.38743452    -0.21000
C982        C  0.55432139  0.93801566  0.40115382    -0.21000
C983        C  0.48304991  0.95402476  0.34753642    -0.22000
C984        C  0.50595161  0.95193413  0.34780658    -0.22000
C985        C  0.44591828  0.89721785  0.42909232    -0.22000
C986        C  0.46841411  0.89458362  0.42935244    -0.22000
C987        C  0.45418322  0.95722253  0.36618129    -0.17400
C988        C  0.43268735  0.92500267  0.41468399    -0.17400
C989        C  0.51165545  0.91520010  0.41550132    -0.17400
C990        C  0.53400530  0.94923007  0.36712006    -0.17400
H991        H  0.42213725  0.97547268  0.38034035     0.15500
H992        H  0.41082031  0.95824174  0.40681135     0.15500
H993        H  0.58027878  0.95527556  0.38232746     0.15500
H994        H  0.56816131  0.93711818  0.40863384     0.15500
H995        H  0.47373060  0.95665854  0.33818333     0.13800
H996        H  0.51772658  0.95252231  0.33870234     0.13800
H997        H  0.42793312  0.88603003  0.43575351     0.13800
H998        H  0.47118978  0.88108229  0.43627519     0.13800
H999        H  0.45837042  0.92836185  0.38904804     0.27100
H1000       H  0.49566116  0.92481240  0.38937578     0.27100
N1001       N  0.57966591  0.75305710  0.46045522    -0.26400
N1002       N  0.57883780  0.76583067  0.44898670    -0.34200
C1003       C  0.57265452  0.74915490  0.43776119     0.02000
C1004       C  0.56932269  0.72436759  0.44226567     0.08000
C1005       C  0.57403450  0.72769961  0.45679530    -0.05100
H1006       H  0.56960145  0.75448589  0.42723149     0.08700
H1007       H  0.57271577  0.71264019  0.46426094     0.09900
Cu1008     Cu  0.58174993  0.80345769  0.44923318     0.44200
Cu1009     Cu  0.58715112  0.77128843  0.48034858     0.42000
Cu1010     Cu  0.58469551  0.83526104  0.48208554     0.43900
N1011       N  0.57327212  0.83422323  0.45126104    -0.33800
N1012       N  0.57325559  0.84566950  0.46339769    -0.28000
C1013       C  0.56349694  0.86237675  0.46119010    -0.04100
C1014       C  0.55683582  0.86105813  0.44693401     0.08100
C1015       C  0.56357766  0.84310555  0.44103869     0.01900
H1016       H  0.56052989  0.87373431  0.46943865     0.09500
H1017       H  0.56095059  0.83615757  0.43018450     0.08600
N1018       N  0.59787114  0.82034377  0.49830994    -0.35200
N1019       N  0.59855351  0.79742918  0.49778936    -0.27400
C1020       C  0.60994462  0.79530561  0.50981360    -0.02600
C1021       C  0.61665869  0.81787546  0.51818421     0.06000
C1022       C  0.60881042  0.83331663  0.51064282     0.04100
H1023       H  0.61400190  0.77912015  0.51202168     0.09200
H1024       H  0.61169581  0.85302772  0.51365214     0.08000
N1025       N  0.11253526  0.60447897  0.39335102    -0.35700
N1026       N  0.09977144  0.56119714  0.37297289    -0.56300
N1027       N  0.12042891  0.53814068  0.39289399    -0.35700
N1028       N  0.13119843  0.58022474  0.41401239    -0.56300
C1029       C  0.09663642  0.60806911  0.38410529     0.27900
C1030       C  0.11498212  0.61914396  0.40511508     0.27900
C1031       C  0.10814407  0.51743333  0.38328725     0.27900
C1032       C  0.12436544  0.52738947  0.40477667     0.27900
C1033       C  0.09500441  0.57760103  0.36473577     0.36500
C1034       C  0.10010463  0.54250789  0.36431469     0.36500
C1035       C  0.14204206  0.60573402  0.41965819     0.36500
C1036       C  0.14523195  0.56949429  0.41971501     0.36500
C1037       C  0.08860397  0.62495771  0.39016540    -0.21000
C1038       C  0.10024883  0.63198392  0.40343073    -0.21000
C1039       C  0.10399823  0.49319246  0.38919081    -0.21000
C1040       C  0.11414103  0.49946112  0.40277176    -0.21000
C1041       C  0.09186441  0.56906690  0.35074054    -0.22000
C1042       C  0.09511924  0.54676695  0.35047434    -0.22000
C1043       C  0.16278982  0.61109457  0.42912255    -0.22000
C1044       C  0.16478185  0.58806656  0.42917706    -0.22000
C1045       C  0.09155053  0.59880962  0.36991426    -0.17400
C1046       C  0.13288487  0.62384040  0.41652151    -0.17400
C1047       C  0.14015179  0.54292792  0.41659646    -0.17400
C1048       C  0.10252572  0.52038440  0.36904431    -0.17400
H1049       H  0.07630863  0.63215144  0.38536801     0.15500
H1050       H  0.09875315  0.64565146  0.41083460     0.15500
H1051       H  0.09507302  0.47317735  0.38415073     0.15500
H1052       H  0.11475463  0.48528416  0.41018378     0.15500
H1053       H  0.08727874  0.57770851  0.34172399     0.13800
H1054       H  0.09347579  0.53475902  0.34122587     0.13800
H1055       H  0.17539099  0.62971818  0.43523265     0.13800
H1056       H  0.17926133  0.58551444  0.43531433     0.13800
H1057       H  0.12438881  0.59608256  0.39100568     0.27100
H1058       H  0.12925849  0.55909457  0.39079967     0.27100
N1059       N  0.20088200  0.76033957  0.46356620    -0.26400
N1060       N  0.21559361  0.77135018  0.45200586    -0.34200
C1061       C  0.20645005  0.75228728  0.44174511     0.02000
C1062       C  0.18466688  0.72770260  0.44697210     0.08000
C1063       C  0.18171376  0.73359866  0.46093203    -0.05100
H1064       H  0.21591741  0.75599037  0.43142306     0.08700
H1065       H  0.16706823  0.71950077  0.46865488     0.09900
Cu1066     Cu  0.24954377  0.81064578  0.45101859     0.44200
Cu1067     Cu  0.20999346  0.78362565  0.48201995     0.42000
Cu1068     Cu  0.27660668  0.85270044  0.48151380     0.43900
N1069       N  0.28783710  0.84596099  0.45153248    -0.33800
N1070       N  0.29893841  0.86154360  0.46284634    -0.28000
C1071       C  0.32527952  0.88110789  0.45988530    -0.04100
C1072       C  0.33076653  0.87747894  0.44596825     0.08100
C1073       C  0.30641568  0.85493828  0.44111589     0.01900
H1074       H  0.33944651  0.89632433  0.46738925     0.09500
H1075       H  0.30265756  0.84466349  0.43100247     0.08600
N1076       N  0.24796163  0.83751736  0.49786860    -0.35200
N1077       N  0.22450773  0.81317317  0.49808928    -0.27400
C1078       C  0.21155448  0.81062262  0.51040875    -0.02600
C1079       C  0.22756733  0.83435966  0.51819405     0.06000
C1080       C  0.25041546  0.85095188  0.51002031     0.04100
H1081       H  0.19204303  0.79270601  0.51348675     0.09200
H1082       H  0.26770882  0.87120534  0.51272813     0.08000
N1083       N  0.48278614  0.57851993  0.40679160    -0.35700
N1084       N  0.45210286  0.53284498  0.38710501    -0.56300
N1085       N  0.49650569  0.55862632  0.36691812    -0.35700
N1086       N  0.52649283  0.60504162  0.38610509    -0.56300
C1087       C  0.45711641  0.56619240  0.41221912     0.27900
C1088       C  0.49679567  0.60483943  0.41163306     0.27900
C1089       C  0.47656346  0.53852072  0.35876283     0.27900
C1090       C  0.51629373  0.57725804  0.35815642     0.27900
C1091       C  0.43632729  0.52226955  0.39877740     0.36500
C1092       C  0.44354189  0.51159595  0.37795834     0.36500
C1093       C  0.53886496  0.62223672  0.39718842     0.36500
C1094       C  0.54631937  0.61150787  0.37640550     0.36500
C1095       C  0.45483426  0.58475730  0.42071508    -0.21000
C1096       C  0.47991641  0.60919838  0.42034003    -0.21000
C1097       C  0.48390152  0.54422311  0.34461925    -0.21000
C1098       C  0.50902413  0.56873436  0.34423297    -0.21000
C1099       C  0.41774255  0.49416283  0.39709562    -0.22000
C1100       C  0.42228271  0.48738517  0.38387461    -0.22000
C1101       C  0.56673537  0.63955642  0.39461252    -0.22000
C1102       C  0.57148676  0.63276295  0.38142756    -0.22000
C1103       C  0.43608604  0.53833356  0.41005924    -0.17400
C1104       C  0.52466558  0.62466786  0.40873427    -0.17400
C1105       C  0.54139701  0.60069462  0.36253161    -0.17400
C1106       C  0.45294793  0.51439284  0.36390443    -0.17400
H1107       H  0.43694969  0.58110645  0.42655473     0.15500
H1108       H  0.48508407  0.62804225  0.42582567     0.15500
H1109       H  0.47249739  0.53186515  0.33554475     0.15500
H1110       H  0.52074635  0.57893196  0.33479331     0.15500
H1111       H  0.40200276  0.48020173  0.40445741     0.13800
H1112       H  0.41079544  0.46711503  0.37904549     0.13800
H1113       H  0.58186321  0.65594400  0.40133576     0.13800
H1114       H  0.59106243  0.64291209  0.37598348     0.13800
H1115       H  0.49098941  0.56874449  0.40121101     0.27100
H1116       H  0.49806242  0.55801703  0.37785721     0.27100
N1117       N  0.30776760  0.47976922  0.46164988    -0.26400
N1118       N  0.29708000  0.48549927  0.45081662    -0.34200
C1119       C  0.31452136  0.49413676  0.43988484     0.02000
C1120       C  0.33767610  0.49397903  0.44390116     0.08000
C1121       C  0.33265953  0.48467895  0.45784860    -0.05100
H1122       H  0.31090088  0.50124420  0.42999031     0.08700
H1123       H  0.34622691  0.48224275  0.46482085     0.09900
Cu1124     Cu  0.26107679  0.48494584  0.45159568     0.44200
Cu1125     Cu  0.28717198  0.46721719  0.48088630     0.42000
Cu1126     Cu  0.22577983  0.47503451  0.48361800     0.43900
N1127       N  0.22891067  0.49087018  0.45337334    -0.33800
N1128       N  0.21568636  0.48819824  0.46526253    -0.28000
C1129       C  0.19670710  0.49496070  0.46274410    -0.04100
C1130       C  0.19828177  0.50220422  0.44850885     0.08100
C1131       C  0.21906528  0.49931188  0.44303719     0.01900
H1132       H  0.18290268  0.49462926  0.47066638     0.09500
H1133       H  0.22716764  0.50356666  0.43239066     0.08600
N1134       N  0.23854702  0.45752841  0.49886500    -0.35200
N1135       N  0.25994801  0.45450324  0.49784907    -0.27400
C1136       C  0.26059457  0.44082739  0.50933168    -0.02600
C1137       C  0.23870553  0.43507376  0.51790052     0.06000
C1138       C  0.22517922  0.44587283  0.51102862     0.04100
H1139       H  0.27561802  0.43509481  0.51115011     0.09200
H1140       H  0.20659909  0.44480142  0.51444056     0.08000
N1141       N  0.64284347  0.68158195  0.32631339    -0.26400
N1142       N  0.65317937  0.66952691  0.33377167    -0.34200
C1143       C  0.63293009  0.64799871  0.34089896     0.02000
C1144       C  0.60864250  0.64635348  0.33773935     0.08000
C1145       C  0.61549494  0.66797505  0.32853462    -0.05100
H1146       H  0.63592624  0.63539993  0.34837485     0.08700
H1147       H  0.60192433  0.67410506  0.32429793     0.09900
Cu1148     Cu  0.69456312  0.68470019  0.33517903     0.44200
Cu1149     Cu  0.66789918  0.71722789  0.31462706     0.42000
Cu1150     Cu  0.74345413  0.74580035  0.31639848     0.43900
N1151       N  0.73632534  0.70218412  0.33677888    -0.33800
N1152       N  0.75487453  0.72431356  0.32974056    -0.28000
C1153       C  0.78011166  0.72974206  0.33328931    -0.04100
C1154       C  0.77693475  0.71016668  0.34314822     0.08100
C1155       C  0.74896722  0.69316042  0.34507939     0.01900
H1156       H  0.79923976  0.74690483  0.32925588     0.09500
H1157       H  0.73844292  0.67537602  0.35199291     0.08600
N1158       N  0.72483150  0.76251369  0.30456822    -0.35200
N1159       N  0.69799950  0.75232700  0.30402617    -0.27400
C1160       C  0.69325539  0.76783532  0.29514105    -0.02600
C1161       C  0.71813446  0.78864534  0.28988155     0.06000
C1162       C  0.73774305  0.78476900  0.29601183     0.04100
H1163       H  0.67308886  0.76385281  0.29248577     0.09200
H1164       H  0.75969654  0.79684269  0.29419359     0.08000
N1165       N  0.08975990  0.74215546  0.30736310    -0.26400
N1166       N  0.07338435  0.75202366  0.30642841    -0.34200
C1167       C  0.08418764  0.77296947  0.29704404     0.02000
C1168       C  0.10831475  0.77623410  0.29197164     0.08000
C1169       C  0.11130362  0.75651487  0.29865831    -0.05100
H1170       H  0.07506827  0.78478230  0.29411061     0.08700
H1171       H  0.12770903  0.75259823  0.29720467     0.09900
Cu1172     Cu  0.03731263  0.73742220  0.31796474     0.44200
Cu1173     Cu  0.08298435  0.70935171  0.31984922     0.42000
Cu1174     Cu  0.02494036  0.68316985  0.34210988     0.43900
N1175       N  0.00555268  0.72079104  0.33272167    -0.33800
N1176       N  0.00218237  0.70164738  0.34185833    -0.28000
C1177       C  0.98159580  0.69604675  0.35071646    -0.04100
C1178       C  0.97115081  0.71216316  0.34695215     0.08100
C1179       C  0.98668793  0.72759345  0.33543157     0.01900
H1180       H  0.97458523  0.68105499  0.35920459     0.09500
H1181       H  0.98484925  0.74299110  0.32968140     0.08600
N1182       N  0.04900828  0.66616462  0.34128305    -0.35200
N1183       N  0.07084582  0.67594407  0.33305391    -0.27400
C1184       C  0.08321338  0.66174915  0.33550866    -0.02600
C1185       C  0.06817758  0.64208932  0.34571226     0.06000
C1186       C  0.04675238  0.64546061  0.34920202     0.04100
H1187       H  0.10226536  0.66619433  0.33067843     0.09200
H1188       H  0.03139971  0.63457375  0.35732430     0.08000
N1189       N  0.83385040  0.65945248  0.40024275    -0.26400
N1190       N  0.85885824  0.66405624  0.40181681    -0.34200
C1191       C  0.86038276  0.65353789  0.41430107     0.02000
C1192       C  0.83505524  0.64174379  0.42082601     0.08000
C1193       C  0.81868018  0.64583738  0.41168331    -0.15300
H1194       H  0.87865804  0.65477647  0.41839224     0.08700
H1195       H  0.79758830  0.64001021  0.41335831     0.09900
Cu1196     Cu  0.88919491  0.68468929  0.38668887     0.44200
Cu1197     Cu  0.82303775  0.67396027  0.38286315     0.42000
Cu1198     Cu  0.87525474  0.71439246  0.35580731     0.43900
N1199       N  0.91508440  0.70177144  0.36940100    -0.33800
N1200       N  0.91056019  0.71281356  0.35820351    -0.28000
C1201       C  0.93063773  0.71963038  0.34862118    -0.04100
C1202       C  0.94828830  0.71215456  0.35405136     0.08100
C1203       C  0.93782170  0.70101746  0.36721005     0.01900
H1204       H  0.93137358  0.72782705  0.33818266     0.09500
H1205       H  0.94550905  0.69193217  0.37446901     0.08600
N1206       N  0.83613583  0.70848752  0.35609753    -0.35200
N1207       N  0.81733637  0.69315913  0.36570281    -0.27400
C1208       C  0.79390235  0.69202528  0.36259523    -0.02600
C1209       C  0.79802013  0.70744159  0.35052419     0.06000
C1210       C  0.82506284  0.71772392  0.34667291     0.04100
H1211       H  0.77513382  0.68059599  0.36867511     0.09200
H1212       H  0.83562527  0.73020460  0.33748409     0.08000
O1213       O  0.17790108  0.36472616  0.25679734    -0.72000
O1214       O  0.22368080  0.36160402  0.22553914    -0.73000
O1215       O  0.17660922  0.36615201  0.22687644    -0.61600
O1216       O  0.22503368  0.36024709  0.25547606    -0.70000
O1217       O  0.19816278  0.31440706  0.25507595    -0.69600
O1218       O  0.14960377  0.32031967  0.22636748    -0.60800
O1219       O  0.19683698  0.31576770  0.22504622    -0.73400
O1220       O  0.15088664  0.31890046  0.25637333    -0.72100
Cu1221     Cu  0.20174000  0.36477752  0.24118628     1.04600
Cu1222     Cu  0.17289672  0.31571217  0.24069590     1.04300
C1223       C  0.15715767  0.34233810  0.26142308     0.94200
C1224       C  0.21760149  0.33823715  0.22048627     0.93300
C1225       C  0.15546718  0.34418399  0.22220583     0.85500
C1226       C  0.21931885  0.33647034  0.25969254     0.91700
O1227       O  0.73808029  0.90865390  0.25386814    -0.72000
O1228       O  0.74240173  0.86006533  0.22406146    -0.73000
O1229       O  0.73691427  0.90734978  0.22376573    -0.61600
O1230       O  0.74351904  0.86157390  0.25428063    -0.70000
O1231       O  0.69800067  0.83414270  0.25463861    -0.69600
O1232       O  0.69143758  0.87961070  0.22427098    -0.60800
O1233       O  0.69691961  0.83259099  0.22460754    -0.73400
O1234       O  0.69260505  0.88096944  0.25424899    -0.72100
Cu1235     Cu  0.74187421  0.88539380  0.23895321     1.04600
Cu1236     Cu  0.69319536  0.85585798  0.23943768     1.04300
C1237       C  0.71461449  0.90241346  0.25866917     0.94200
C1238       C  0.72025256  0.83856105  0.21976329     0.93300
C1239       C  0.71309634  0.90085182  0.21942222     0.85500
C1240       C  0.72163665  0.84070642  0.25925830     0.91700
N1241       N  0.08112044  0.41516137  0.14742613    -0.26400
N1242       N  0.06082112  0.40188147  0.13824920    -0.34200
C1243       C  0.06097238  0.42010527  0.12916370     0.02000
C1244       C  0.08238772  0.44607997  0.13278086     0.08000
C1245       C  0.09489948  0.44239450  0.14436913    -0.05100
H1246       H  0.04695960  0.41470048  0.12035042     0.08700
H1247       H  0.11289935  0.45814024  0.14996544     0.09900
Cu1248     Cu  0.03498022  0.35948788  0.13773139     0.44200
Cu1249     Cu  0.08885880  0.39447813  0.16310100     0.42000
Cu1250     Cu  0.04145465  0.31792558  0.16368570     0.43900
N1251       N  0.01152935  0.31688333  0.13757944    -0.33800
N1252       N  0.01294976  0.30111344  0.14737416    -0.28000
C1253       C  0.99471417  0.27437740  0.14421770    -0.04100
C1254       C  0.98165394  0.27355368  0.13170748     0.08100
C1255       C  0.99283995  0.30082626  0.12782741     0.01900
H1256       H  0.99161124  0.25692784  0.15038667     0.09500
H1257       H  0.98759696  0.30852296  0.11865712     0.08600
N1258       N  0.07451569  0.34043294  0.17725920    -0.35200
N1259       N  0.09149413  0.36765981  0.17704393    -0.27400
C1260       C  0.11128480  0.37477349  0.18678840    -0.02600
C1261       C  0.10644883  0.35096131  0.19335313     0.06000
C1262       C  0.08312067  0.32960740  0.18711503     0.04100
H1263       H  0.12831726  0.39563861  0.18865304     0.09200
H1264       H  0.07351593  0.30773701  0.18926942     0.08000
N1265       N  0.63774822  0.98531247  0.15253779    -0.26400
N1266       N  0.64966672  0.00855166  0.14515564    -0.34200
C1267       C  0.63067457  0.00949699  0.13724752     0.02000
C1268       C  0.60562694  0.98574904  0.13976930     0.08000
C1269       C  0.61069677  0.97073747  0.14945857    -0.05100
H1270       H  0.63507765  0.02558594  0.12966425     0.08700
H1271       H  0.59612685  0.95028772  0.15348168     0.09900
Cu1272     Cu  0.69156816  0.03622192  0.14459037     0.44200
Cu1273     Cu  0.65980054  0.97407320  0.16544733     0.42000
Cu1274     Cu  0.73470969  0.02233364  0.16605906     0.43900
N1275       N  0.73394031  0.05953125  0.14381949    -0.33800
N1276       N  0.75007384  0.05508331  0.15190520    -0.28000
C1277       C  0.77645613  0.07318872  0.14834350    -0.04100
C1278       C  0.77670660  0.08942800  0.13736654     0.08100
C1279       C  0.74945228  0.08019936  0.13477507     0.01900
H1280       H  0.79398474  0.07356437  0.15290918     0.09500
H1281       H  0.74139631  0.08750908  0.12669015     0.08600
N1282       N  0.71399120  0.98597409  0.17771272    -0.35200
N1283       N  0.68703942  0.96838258  0.17740939    -0.27400
C1284       C  0.68071631  0.94668513  0.18581633    -0.02600
C1285       C  0.70479604  0.95091575  0.19160120     0.06000
C1286       C  0.72546103  0.97593239  0.18630159     0.04100
H1287       H  0.66015292  0.92908773  0.18749474     0.09200
H1288       H  0.74726246  0.98598402  0.18838453     0.08000
N1289       N  0.82527337  0.13816911  0.11174077    -0.26400
N1290       N  0.84228262  0.14246423  0.12228967    -0.34200
C1291       C  0.82776166  0.12553967  0.13309760     0.02000
C1292       C  0.80038469  0.11026892  0.12913123     0.08000
C1293       C  0.79958138  0.11883808  0.11557817    -0.05100
H1294       H  0.83637099  0.12494256  0.14319068     0.08700
H1295       H  0.78165691  0.11146846  0.10891895     0.09900
Cu1296     Cu  0.88384895  0.17302100  0.12181643     0.44200
Cu1297     Cu  0.83676515  0.15824816  0.09247987     0.42000
Cu1298     Cu  0.90570402  0.21436891  0.08929952     0.43900
N1299       N  0.92167009  0.20959632  0.11933672    -0.33800
N1300       N  0.92896665  0.22472901  0.10766425    -0.28000
C1301       C  0.95219218  0.24907948  0.11016517    -0.04100
C1302       C  0.96002068  0.24934865  0.12402341     0.08100
C1303       C  0.94037557  0.22391146  0.12952680     0.01900
H1304       H  0.96180927  0.26594940  0.10265306     0.09500
H1305       H  0.93853136  0.21724777  0.14041635     0.08600
N1306       N  0.87757774  0.20197806  0.07287471    -0.35200
N1307       N  0.85191840  0.18105303  0.07413464    -0.27400
C1308       C  0.83819283  0.17849549  0.06211565    -0.02600
C1309       C  0.85615808  0.19881648  0.05289374     0.06000
C1310       C  0.88093024  0.21342368  0.05998313     0.04100
H1311       H  0.81662425  0.16340663  0.06038016     0.09200
H1312       H  0.89975620  0.23136783  0.05621102     0.08000
N1313       N  0.36983165  0.40850380  0.14882803    -0.26400
N1314       N  0.37548730  0.39593545  0.13886718    -0.34200
C1315       C  0.39538936  0.41493996  0.13042717     0.02000
C1316       C  0.40273506  0.44075650  0.13531127     0.08000
C1317       C  0.38612542  0.43609760  0.14696227    -0.05100
H1318       H  0.40373386  0.41024885  0.12134138     0.08700
H1319       H  0.38564278  0.45150141  0.15345210     0.09900
Cu1320     Cu  0.35618095  0.35353704  0.13725343     0.44200
Cu1321     Cu  0.33927204  0.38614122  0.16386665     0.42000
Cu1322     Cu  0.30570116  0.30937306  0.16274635     0.43900
N1323       N  0.33841981  0.31121426  0.13759683    -0.33800
N1324       N  0.32050019  0.29459523  0.14719516    -0.28000
C1325       C  0.31386803  0.26847347  0.14452638    -0.04100
C1326       C  0.32818146  0.26892809  0.13258184     0.08100
C1327       C  0.34346867  0.29631964  0.12851300     0.01900
H1328       H  0.29937822  0.25052173  0.15063077     0.09500
H1329       H  0.35747939  0.30492880  0.11964722     0.08600
N1330       N  0.29370556  0.33076301  0.17574570    -0.35200
N1331       N  0.30579316  0.35805490  0.17618319    -0.27400
C1332       C  0.29216611  0.36460484  0.18538806    -0.02600
C1333       C  0.27058497  0.34042538  0.19092394     0.06000
C1334       C  0.27207432  0.31935664  0.18465230     0.04100
H1335       H  0.29738672  0.38545168  0.18770837     0.09200
H1336       H  0.25832247  0.29736669  0.18629734     0.08000
N1337       N  0.37853982  0.98509644  0.15023598    -0.26400
N1338       N  0.38626363  0.00589988  0.14137869    -0.34200
C1339       C  0.40613300  0.00814324  0.13286888     0.02000
C1340       C  0.41118400  0.98781360  0.13658579     0.08000
C1341       C  0.39332855  0.97340268  0.14758570    -0.05100
H1342       H  0.41555439  0.02292902  0.12432930     0.08700
H1343       H  0.39067782  0.95534298  0.15294919     0.09900
Cu1344     Cu  0.36810881  0.02900566  0.14073152     0.44200
Cu1345     Cu  0.34692044  0.97356836  0.16460529     0.42000
Cu1346     Cu  0.31357384  0.01497435  0.16462445     0.43900
N1347       N  0.34847261  0.05071669  0.14078371    -0.33800
N1348       N  0.32893985  0.04648113  0.14977312    -0.28000
C1349       C  0.32063797  0.06412462  0.14673306    -0.04100
C1350       C  0.33551753  0.07978782  0.13514554     0.08100
C1351       C  0.35288711  0.07072152  0.13168077     0.01900
H1352       H  0.30431250  0.06471230  0.15216196     0.09500
H1353       H  0.36753083  0.07792591  0.12306815     0.08600
N1354       N  0.30173660  0.98036012  0.17699747    -0.35200
N1355       N  0.31368020  0.96575045  0.17699815    -0.27400
C1356       C  0.30032490  0.94454304  0.18608585    -0.02600
C1357       C  0.27911898  0.94593939  0.19198048     0.06000
C1358       C  0.28045465  0.96874328  0.18607617     0.04100
H1359       H  0.30558512  0.92916945  0.18813698     0.09200
H1360       H  0.26693629  0.97628687  0.18813192     0.08000
N1361       N  0.35834624  0.17484108  0.07359526    -0.26400
N1362       N  0.35915412  0.19847053  0.07360012    -0.34200
C1363       C  0.36960723  0.21150209  0.06122119     0.02000
C1364       C  0.37551195  0.19512628  0.05310904     0.08000
C1365       C  0.36824151  0.17208769  0.06121345    -0.05100
H1366       H  0.37353827  0.23178065  0.05856896     0.08700
H1367       H  0.37099562  0.15519037  0.05858297     0.09900
Cu1368     Cu  0.34776304  0.21221873  0.09096603     0.44200
Cu1369     Cu  0.34641024  0.14940156  0.09110229     0.42000
Cu1370     Cu  0.32114696  0.16790168  0.12218942     0.43900
N1371       N  0.33525612  0.22232195  0.10928683    -0.33800
N1372       N  0.32463985  0.20616355  0.12051717    -0.28000
C1373       C  0.31948890  0.21978842  0.13051166    -0.04100
C1374       C  0.32761320  0.24577488  0.12530338     0.08100
C1375       C  0.33745053  0.24658678  0.11185819     0.01900
H1376       H  0.31165591  0.21187404  0.14098864     0.09500
H1377       H  0.34606382  0.26376180  0.10451836     0.08600
N1378       N  0.32675053  0.13457743  0.12143686    -0.35200
N1379       N  0.33669751  0.12880609  0.11022506    -0.27400
C1380       C  0.34073942  0.10826596  0.11343492    -0.02600
C1381       C  0.33274659  0.10042558  0.12726670     0.06000
C1382       C  0.32381799  0.11737583  0.13206382     0.04100
H1383       H  0.34933748  0.09997604  0.10624790     0.09200
H1384       H  0.31696246  0.11805559  0.14264329     0.08000
N1385       N  0.20708174  0.75313035  0.01393045    -0.26400
N1386       N  0.22575667  0.76080219  0.02396236    -0.34200
C1387       C  0.21738699  0.74040742  0.03341707     0.02000
C1388       C  0.19206572  0.71852238  0.02921733     0.08000
C1389       C  0.18594403  0.72732419  0.01681481    -0.05100
H1390       H  0.22907170  0.74153863  0.04267070     0.08700
H1391       H  0.16794392  0.71564724  0.01021267     0.09900
Cu1392     Cu  0.26216871  0.79814736  0.02447789     0.44200
Cu1393     Cu  0.21361873  0.77928204  0.99706144     0.42000
Cu1394     Cu  0.28032909  0.84897988  0.99835980     0.43900
N1395       N  0.29829916  0.83574711  0.02510053    -0.33800
N1396       N  0.30590814  0.85525331  0.01547159    -0.28000
C1397       C  0.33060792  0.87724352  0.01921713    -0.04100
C1398       C  0.33847836  0.87105695  0.03193101     0.08100
C1399       C  0.31746461  0.84451289  0.03520988     0.01900
H1400       H  0.34169155  0.89635912  0.01329971     0.09500
H1401       H  0.31613495  0.83219928  0.04425328     0.08600
N1402       N  0.25002837  0.83549282  0.98283708    -0.35200
N1403       N  0.22679243  0.81096647  0.98234374    -0.27400
C1404       C  0.21282376  0.80962260  0.97061780    -0.02600
C1405       C  0.22787368  0.83432798  0.96349651     0.06000
C1406       C  0.25126921  0.85027902  0.97143057     0.04100
H1407       H  0.19327084  0.79183820  0.96747445     0.09200
H1408       H  0.26815527  0.87094957  0.96902226     0.08000
N1409       N  0.11268225  0.59795355  0.08388649    -0.35700
N1410       N  0.10184720  0.55493249  0.10427158    -0.56300
N1411       N  0.11755869  0.52810117  0.08327537    -0.35700
N1412       N  0.13040381  0.57219731  0.06342700    -0.56300
C1413       C  0.10990551  0.60914852  0.09593315     0.27900
C1414       C  0.12580559  0.61874456  0.07437961     0.27900
C1415       C  0.11628002  0.51407796  0.09511992     0.27900
C1416       C  0.13234084  0.52377031  0.07359017     0.27900
C1417       C  0.09160823  0.56792129  0.11161596     0.36500
C1418       C  0.09385300  0.53108636  0.11122452     0.36500
C1419       C  0.13269421  0.59276735  0.05524332     0.36500
C1420       C  0.13529968  0.55619826  0.05491212     0.36500
C1421       C  0.12061862  0.63717454  0.09390434    -0.21000
C1422       C  0.13072871  0.64324202  0.08034034    -0.21000
C1423       C  0.12985071  0.50017677  0.09283664    -0.21000
C1424       C  0.14012219  0.50641887  0.07929913    -0.21000
C1425       C  0.07717937  0.55234581  0.12333402    -0.22000
C1426       C  0.07856803  0.52896948  0.12307745    -0.22000
C1427       C  0.13872905  0.58963850  0.04141648    -0.22000
C1428       C  0.14029860  0.56640654  0.04119649    -0.22000
C1429       C  0.09715656  0.59467166  0.10855112    -0.17400
C1430       C  0.13334865  0.61635076  0.06043092    -0.17400
C1431       C  0.13874242  0.53468426  0.05967706    -0.17400
C1432       C  0.10218516  0.51247436  0.10771073    -0.17400
H1433       H  0.12133572  0.65184264  0.10145683     0.15500
H1434       H  0.14069237  0.66348350  0.07545942     0.15500
H1435       H  0.13229913  0.48704994  0.10020295     0.15500
H1436       H  0.15206186  0.49903837  0.07427815     0.15500
H1437       H  0.06716723  0.55754313  0.13137228     0.13800
H1438       H  0.06985487  0.51259878  0.13089484     0.13800
H1439       H  0.14261750  0.60326973  0.03253909     0.13800
H1440       H  0.14557367  0.55854570  0.03210409     0.13800
H1441       H  0.10410391  0.57701675  0.08191002     0.27100
H1442       H  0.10677073  0.53785582  0.08150638     0.27100
N1443       N  0.58903990  0.75730412  0.02057357    -0.26400
N1444       N  0.58667941  0.76853243  0.03230133    -0.34200
C1445       C  0.57904710  0.75042934  0.04296922     0.02000
C1446       C  0.57623739  0.72630430  0.03787469     0.08000
C1447       C  0.58302382  0.73146336  0.02358944    -0.05100
H1448       H  0.57468266  0.75427922  0.05356125     0.08700
H1449       H  0.58209287  0.71700974  0.01583125     0.09900
Cu1450     Cu  0.58832417  0.80551735  0.03339483     0.44200
Cu1451     Cu  0.59745531  0.77780841  0.00112147     0.42000
Cu1452     Cu  0.58792466  0.83753131  0.00140740     0.43900
N1453       N  0.57846689  0.83547263  0.03263370    -0.33800
N1454       N  0.57725986  0.84685206  0.02071095    -0.28000
C1455       C  0.56734312  0.86319733  0.02349083    -0.04100
C1456       C  0.56185153  0.86186479  0.03791363     0.08100
C1457       C  0.56934782  0.84408977  0.04331633     0.01900
H1458       H  0.56359942  0.87443021  0.01549578     0.09500
H1459       H  0.56755094  0.83708163  0.05412375     0.08600
N1460       N  0.60237563  0.82592824  0.98422924    -0.35200
N1461       N  0.60595121  0.80472082  0.98410222    -0.27400
C1462       C  0.61721738  0.80449493  0.97162146    -0.02600
C1463       C  0.62084614  0.82648581  0.96360562     0.06000
C1464       C  0.61126926  0.83964154  0.97186200     0.04100
H1465       H  0.62303702  0.78985194  0.96876733     0.09200
H1466       H  0.61148851  0.85828437  0.96927181     0.08000
N1467       N  0.45442642  0.94777002  0.08912905    -0.35700
N1468       N  0.47876386  0.92610308  0.07008756    -0.56300
N1469       N  0.51990802  0.93824622  0.09174372    -0.35700
N1470       N  0.49731268  0.96290989  0.10987897    -0.56300
C1471       C  0.43999330  0.94438035  0.07716382     0.27900
C1472       C  0.44896705  0.96256080  0.09827291     0.27900
C1473       C  0.52974936  0.93072406  0.08076460     0.27900
C1474       C  0.54077795  0.95210788  0.10107962     0.27900
C1475       C  0.45476706  0.91719806  0.06324355     0.36500
C1476       C  0.48899168  0.91115829  0.06492458     0.36500
C1477       C  0.48072760  0.96793432  0.11777203     0.36500
C1478       C  0.51698110  0.96510674  0.11866454     0.36500
C1479       C  0.42535983  0.95739111  0.07866602    -0.21000
C1480       C  0.43095786  0.96880421  0.09200052    -0.21000
C1481       C  0.55712176  0.93975230  0.08316907    -0.21000
C1482       C  0.56409675  0.95326638  0.09596609    -0.21000
C1483       C  0.45004899  0.89693234  0.05348811    -0.22000
C1484       C  0.47173446  0.89310161  0.05456283    -0.22000
C1485       C  0.49023787  0.97393854  0.13159662    -0.22000
C1486       C  0.51332357  0.97228766  0.13214484    -0.22000
C1487       C  0.43703300  0.92708138  0.06566877    -0.17400
C1488       C  0.45804808  0.96863464  0.11247087    -0.17400
C1489       C  0.53890145  0.96203983  0.11450326    -0.17400
C1490       C  0.51423441  0.91437585  0.06908107    -0.17400
H1491       H  0.41140834  0.95784987  0.07109374     0.15500
H1492       H  0.42230378  0.97994713  0.09665103     0.15500
H1493       H  0.57063630  0.93673574  0.07644468     0.15500
H1494       H  0.58401683  0.96257108  0.10101392     0.15500
H1495       H  0.43263579  0.88577232  0.04645315     0.13800
H1496       H  0.47436152  0.87853224  0.04848513     0.13800
H1497       H  0.48165044  0.97927921  0.14032457     0.13800
H1498       H  0.52596116  0.97595704  0.14139840     0.13800
H1499       H  0.46403157  0.93715789  0.09167445     0.27100
H1500       H  0.49937170  0.93129787  0.09353557     0.27100
N1501       N  0.48885961  0.57832886  0.07132371    -0.35700
N1502       N  0.45677836  0.52929573  0.08903298    -0.56300
N1503       N  0.49798625  0.55617435  0.11141248    -0.35700
N1504       N  0.53125356  0.60387954  0.09287317    -0.56300
C1505       C  0.46863307  0.56187494  0.06216457     0.27900
C1506       C  0.50786268  0.60095136  0.06410714     0.27900
C1507       C  0.48217762  0.53049027  0.11694481     0.27900
C1508       C  0.52186112  0.56937001  0.11878046     0.27900
C1509       C  0.43812979  0.52314750  0.07864044     0.36500
C1510       C  0.44321473  0.51123311  0.09968765     0.36500
C1511       C  0.54067272  0.62574683  0.08399980     0.36500
C1512       C  0.54614825  0.61351146  0.10491514     0.36500
C1513       C  0.47493703  0.57404641  0.04886879    -0.21000
C1514       C  0.49961535  0.59869601  0.05009168    -0.21000
C1515       C  0.49604364  0.52740452  0.12813626    -0.21000
C1516       C  0.52108402  0.55188407  0.12927171    -0.21000
C1517       C  0.41284620  0.50054369  0.08253862    -0.22000
C1518       C  0.41608117  0.49292943  0.09582157    -0.22000
C1519       C  0.56209557  0.64925201  0.09033100    -0.22000
C1520       C  0.56558549  0.64152453  0.10354128    -0.22000
C1521       C  0.44332746  0.53770438  0.06571115    -0.17400
C1522       C  0.53083228  0.62477538  0.07009688    -0.17400
C1523       C  0.54359171  0.59722093  0.11683991    -0.17400
C1524       C  0.45504334  0.51038538  0.11269198    -0.17400
H1525       H  0.46259671  0.56636444  0.03935802     0.15500
H1526       H  0.50977421  0.61358775  0.04166857     0.15500
H1527       H  0.48880640  0.50943599  0.13484513     0.15500
H1528       H  0.53679847  0.55639618  0.13705037     0.15500
H1529       H  0.39391948  0.49069544  0.07651654     0.13800
H1530       H  0.40014052  0.47602101  0.10198349     0.13800
H1531       H  0.57412798  0.66982630  0.08588343     0.13800
H1532       H  0.58077517  0.65503885  0.11123937     0.13800
H1533       H  0.48769060  0.57611804  0.08226206     0.27100
H1534       H  0.49150217  0.56528563  0.10412355     0.27100
N1535       N  0.31416635  0.48276016  0.01477140    -0.26400
N1536       N  0.30907396  0.49814116  0.02311888    -0.34200
C1537       C  0.32948684  0.51127865  0.03252642     0.02000
C1538       C  0.34866294  0.50394280  0.03011012     0.08000
C1539       C  0.33819935  0.48568036  0.01874665    -0.05100
H1540       H  0.32973025  0.52453438  0.04079907     0.08700
H1541       H  0.34731490  0.47531550  0.01372686     0.09900
Cu1542     Cu  0.27388903  0.49943579  0.02236101     0.44200
Cu1543     Cu  0.28731960  0.45908850  0.99854534     0.42000
Cu1544     Cu  0.22019553  0.45478793  0.99893482     0.43900
N1545       N  0.23590876  0.49510721  0.02257908    -0.33800
N1546       N  0.21527678  0.47776923  0.01436739    -0.28000
C1547       C  0.19317415  0.47936495  0.01749208    -0.04100
C1548       C  0.20059537  0.49896055  0.02808108     0.08100
C1549       C  0.22779491  0.50837970  0.03103394     0.01900
H1550       H  0.17347514  0.46767657  0.01223004     0.09500
H1551       H  0.24074204  0.52354790  0.03888778     0.08600
N1552       N  0.23322931  0.43884510  0.98316844    -0.35200
N1553       N  0.25718655  0.44044806  0.98291045    -0.27400
C1554       C  0.25923332  0.42955652  0.97065525    -0.02600
C1555       C  0.23551401  0.42075433  0.96295905     0.06000
C1556       C  0.21951944  0.42693520  0.97112736     0.04100
H1557       H  0.27696058  0.42877623  0.96745498     0.09200
H1558       H  0.19969599  0.42374443  0.96837589     0.08000
N1559       N  0.64456626  0.67502455  0.15436138    -0.26400
N1560       N  0.65514007  0.66292748  0.14713867    -0.34200
C1561       C  0.63513329  0.64162697  0.13972408     0.02000
C1562       C  0.61071284  0.64014134  0.14242705     0.08000
C1563       C  0.61734521  0.66167844  0.15168422    -0.05100
H1564       H  0.63839870  0.62904199  0.13237590     0.08700
H1565       H  0.60369721  0.66791655  0.15566882     0.09900
Cu1566     Cu  0.69677233  0.67801030  0.14662548     0.44200
Cu1567     Cu  0.66928709  0.71047818  0.16646374     0.42000
Cu1568     Cu  0.74420248  0.73777042  0.16769422     0.43900
N1569       N  0.73890856  0.69599140  0.14639547    -0.33800
N1570       N  0.75654895  0.71709764  0.15435529    -0.28000
C1571       C  0.78221598  0.72310222  0.15141534    -0.04100
C1572       C  0.78038649  0.70512667  0.14096085     0.08100
C1573       C  0.75270424  0.68835276  0.13805401     0.01900
H1574       H  0.80078934  0.73985417  0.15614580     0.09500
H1575       H  0.74318012  0.67173731  0.13039958     0.08600
N1576       N  0.72498266  0.75528630  0.17827963    -0.35200
N1577       N  0.69825045  0.74557631  0.17770905    -0.27400
C1578       C  0.69284402  0.76178551  0.18566818    -0.02600
C1579       C  0.71717916  0.78258782  0.19148395     0.06000
C1580       C  0.73716118  0.77791394  0.18662879     0.04100
H1581       H  0.67258978  0.75846720  0.18721720     0.09200
H1582       H  0.75889616  0.78991004  0.18904944     0.08000
N1583       N  0.09396996  0.73330200  0.17701147    -0.26400
N1584       N  0.07573538  0.74076175  0.17857408    -0.34200
C1585       C  0.08528739  0.76137959  0.18810326     0.02000
C1586       C  0.11061212  0.76714776  0.19271629     0.08000
C1587       C  0.11558618  0.74908693  0.18553684    -0.05100
H1588       H  0.07460442  0.77149939  0.19134809     0.08700
H1589       H  0.13355715  0.74750661  0.18642117     0.09900
Cu1590     Cu  0.03890925  0.72414021  0.16757880     0.44200
Cu1591     Cu  0.08946287  0.70219224  0.16342535     0.42000
Cu1592     Cu  0.02845820  0.67220924  0.14270655     0.43900
N1593       N  0.00611911  0.70633438  0.15352022    -0.33800
N1594       N  0.00309948  0.68760263  0.14422067    -0.28000
C1595       C  0.98133778  0.68061223  0.13599002    -0.04100
C1596       C  0.96982478  0.69548020  0.14031179     0.08100
C1597       C  0.98598246  0.71162996  0.15150238     0.01900
H1598       H  0.97444784  0.66571058  0.12746988     0.09500
H1599       H  0.98362310  0.72642366  0.15752234     0.08600
N1600       N  0.05585380  0.65925460  0.14149574    -0.35200
N1601       N  0.07878985  0.67032352  0.14896615    -0.27400
C1602       C  0.09264846  0.65811585  0.14519048    -0.02600
C1603       C  0.07741795  0.63846146  0.13495598     0.06000
C1604       C  0.05435385  0.63979491  0.13283411     0.04100
H1605       H  0.11251410  0.66356609  0.14933275     0.09200
H1606       H  0.03803137  0.62806547  0.12527410     0.08000
N1607       N  0.85775641  0.65047139  0.08562217    -0.26400
N1608       N  0.83708522  0.65449672  0.08504991    -0.34200
C1609       C  0.82294183  0.64354249  0.07303007     0.02000
C1610       C  0.83545545  0.63210974  0.06579713     0.08000
C1611       C  0.85747930  0.63682213  0.07396033    -0.05100
H1612       H  0.80511259  0.64410534  0.06978647     0.08700
H1613       H  0.87234858  0.63113667  0.07155929     0.09900
Cu1614     Cu  0.82969039  0.67461803  0.10079621     0.44200
Cu1615     Cu  0.88512084  0.66478935  0.10220368     0.42000
Cu1616     Cu  0.87674665  0.70364928  0.13081502     0.43900
N1617       N  0.82328144  0.69219950  0.11819468    -0.33800
N1618       N  0.84012024  0.70330889  0.12911418    -0.28000
C1619       C  0.82813311  0.71107304  0.13880493    -0.04100
C1620       C  0.80251221  0.70403035  0.13371144     0.08100
C1621       C  0.80024219  0.69219606  0.12066165     0.01900
H1622       H  0.83668141  0.71963429  0.14909344     0.09500
H1623       H  0.78269958  0.68331725  0.11362216     0.08600
N1624       N  0.90908009  0.69662978  0.12953207    -0.35200
N1625       N  0.91122211  0.68215591  0.11920666    -0.27400
C1626       C  0.93316980  0.68013091  0.12149870    -0.02600
C1627       C  0.94570420  0.69395734  0.13383957     0.06000
C1628       C  0.93001401  0.70432023  0.13870032     0.04100
H1629       H  0.93935551  0.66911214  0.11465939     0.09200
H1630       H  0.93316819  0.71596038  0.14831379     0.08000
O1631       O  0.22899103  0.87768830  0.25662799    -0.72000
O1632       O  0.17966824  0.82280097  0.22739240    -0.73000
O1633       O  0.22935514  0.87512763  0.22676535    -0.61600
O1634       O  0.17913956  0.82552495  0.25735480    -0.70000
O1635       O  0.15551070  0.84639610  0.25608967    -0.69600
O1636       O  0.20557435  0.89584966  0.22554386    -0.60800
O1637       O  0.15581918  0.84341065  0.22609149    -0.73400
O1638       O  0.20542591  0.89861711  0.25544809    -0.72100
Cu1639     Cu  0.20510750  0.84953288  0.24207903     1.04600
Cu1640     Cu  0.17971687  0.87178291  0.24074776     1.04300
C1641       C  0.22506412  0.89678941  0.26056098     0.94200
C1642       C  0.16006837  0.82449663  0.22214638     0.93300
C1643       C  0.22538034  0.89335412  0.22145062     0.85500
C1644       C  0.15949492  0.82827215  0.26150972     0.91700
C1645       C  0.12807223  0.78768820  0.20295482    -0.12400
C1646       C  0.14256150  0.80471514  0.21166108    -0.13900
C1647       C  0.56527797  0.60999816  0.12743527    -0.12400
C1648       C  0.58512477  0.62295837  0.13501330    -0.13900
C1649       C  0.38746800  0.49836174  0.03819731    -0.12400
C1650       C  0.37398831  0.51310557  0.03847052     0.09700
C1651       C  0.38433317  0.53641812  0.04730255    -0.12400
C1652       C  0.40702582  0.54434433  0.05593797    -0.12400
C1653       C  0.41992800  0.52921480  0.05594386     0.09700
C1654       C  0.41027841  0.50633010  0.04693265    -0.12400
H1655       H  0.38000841  0.48031228  0.03153775     0.13700
H1656       H  0.37490779  0.54862510  0.04762467     0.13700
H1657       H  0.41441004  0.56217979  0.06277843     0.13700
H1658       H  0.42017343  0.49453011  0.04681451     0.13700
C1659       C  0.54554466  0.89517506  0.03925933    -0.12400
C1660       C  0.54914678  0.87502556  0.04575448     0.09700
C1661       C  0.54036669  0.86746742  0.05985431    -0.12400
C1662       C  0.52861168  0.87992072  0.06728448    -0.12400
C1663       C  0.52536043  0.90018830  0.06080960     0.09700
C1664       C  0.53377270  0.90764173  0.04672626    -0.12400
H1665       H  0.55210802  0.90163982  0.02847063     0.13700
H1666       H  0.54246461  0.85190212  0.06522890     0.13700
H1667       H  0.52222141  0.87392303  0.07815914     0.13700
H1668       H  0.53157805  0.92340519  0.04160172     0.13700
C1669       C  0.54759823  0.69495105  0.05752727    -0.12400
C1670       C  0.56497145  0.70006000  0.04588091     0.09700
C1671       C  0.57136199  0.68012488  0.04221218    -0.12400
C1672       C  0.56085456  0.65577760  0.05021564    -0.12400
C1673       C  0.54347570  0.65091020  0.06181370     0.09700
C1674       C  0.53690121  0.67063132  0.06534351    -0.12400
H1675       H  0.54179836  0.70954593  0.06051502     0.13700
H1676       H  0.58470768  0.68352661  0.03331174     0.13700
H1677       H  0.56597814  0.64061698  0.04730327     0.13700
H1678       H  0.52328583  0.66705949  0.07414943     0.13700
C1679       C  0.09037125  0.60875281  0.11907064    -0.12400
C1680       C  0.08491027  0.62194280  0.12691434    -0.13900
C1681       C  0.18164127  0.54412400  0.04784439    -0.12400
C1682       C  0.15351683  0.52586540  0.05029090     0.09700
C1683       C  0.14031927  0.49903198  0.04463711    -0.12400
C1684       C  0.15536117  0.49039429  0.03689849    -0.12400
C1685       C  0.18379433  0.50840521  0.03493860     0.09700
C1686       C  0.19665333  0.53546559  0.04027521    -0.12400
H1687       H  0.19210882  0.56487128  0.05216571     0.13700
H1688       H  0.11860648  0.48468471  0.04650829     0.13700
H1689       H  0.14502759  0.46940437  0.03292716     0.13700
H1690       H  0.21845570  0.54989455  0.03875138     0.13700
C1691       C  0.41249890  0.92223731  0.04261411    -0.12400
C1692       C  0.41171099  0.91553128  0.05699530     0.09700
C1693       C  0.38662363  0.89605736  0.06319708    -0.12400
C1694       C  0.36279792  0.88252882  0.05508211    -0.12400
C1695       C  0.36349160  0.88815479  0.04054714     0.09700
C1696       C  0.38841903  0.90871306  0.03443083    -0.12400
H1697       H  0.43179957  0.93728826  0.03769201     0.13700
H1698       H  0.38567648  0.89073411  0.07428463     0.13700
H1699       H  0.34385692  0.86728714  0.06020821     0.13700
H1700       H  0.38952073  0.91345119  0.02325978     0.13700
C1701       C  0.14751389  0.67511209  0.03570016    -0.12400
C1702       C  0.17636421  0.69146870  0.03640754     0.09700
C1703       C  0.19057193  0.68229991  0.04456164    -0.12400
C1704       C  0.17634517  0.65764929  0.05208614    -0.12400
C1705       C  0.14763046  0.64170372  0.05168548     0.09700
C1706       C  0.13316045  0.65036833  0.04341476    -0.12400
H1707       H  0.13611716  0.68180188  0.02952384     0.13700
H1708       H  0.21279166  0.69416112  0.04513419     0.13700
H1709       H  0.18771536  0.65110547  0.05840904     0.13700
H1710       H  0.11091603  0.63815642  0.04305837     0.13700
C1711       C  0.25961974  0.92729973  0.20214035    -0.12400
C1712       C  0.24370464  0.91160681  0.21082839    -0.13900
C1713       C  0.44307124  0.97600567  0.12201774    -0.12400
C1714       C  0.42903406  0.98129243  0.12922903    -0.13900
C1715       C  0.42248810  0.46672336  0.12880427    -0.12400
C1716       C  0.43820783  0.48712765  0.12205687    -0.13900
C1717       C  0.56118510  0.97000677  0.12443871    -0.12400
C1718       C  0.58073516  0.97680339  0.13199359    -0.13900
C1719       C  0.09638976  0.49060620  0.11764593    -0.12400
C1720       C  0.09076586  0.47113474  0.12513082    -0.13900
C1721       C  0.72045700  0.80382633  0.20112994    -0.12400
C1722       C  0.72137461  0.82044816  0.20946600    -0.13900
C1723       C  0.70786376  0.93287206  0.20105689    -0.12400
C1724       C  0.71049058  0.91805418  0.20919539    -0.13900
C1725       C  0.13798586  0.34642779  0.21214957    -0.12400
C1726       C  0.12348895  0.34857250  0.20367179    -0.13900
C1727       C  0.23480961  0.33734634  0.20969934    -0.12400
C1728       C  0.25058029  0.33797349  0.20100898    -0.13900
C1729       C  0.12621019  0.79532075  0.28143093    -0.12400
C1730       C  0.14147477  0.81060399  0.27240788    -0.13900
C1731       C  0.72330047  0.82415578  0.27023164    -0.12400
C1732       C  0.72218228  0.80872091  0.27934296    -0.13900
C1733       C  0.56311060  0.61520476  0.35221014    -0.12400
C1734       C  0.58290481  0.62890053  0.34478951    -0.13900
C1735       C  0.41163061  0.52078929  0.43330647    -0.12400
C1736       C  0.41102641  0.52637546  0.41889643     0.09700
C1737       C  0.38632334  0.52050186  0.41269592    -0.12400
C1738       C  0.36248552  0.50935144  0.42077360    -0.12400
C1739       C  0.36286658  0.50406238  0.43530039     0.09700
C1740       C  0.38766024  0.50960794  0.44146468    -0.12400
H1741       H  0.43063670  0.52519299  0.43820480     0.13700
H1742       H  0.38556335  0.52464188  0.40156155     0.13700
H1743       H  0.34382095  0.50498715  0.41553802     0.13700
H1744       H  0.38872619  0.50586367  0.45260531     0.13700
C1745       C  0.08247810  0.61212171  0.36024929    -0.12400
C1746       C  0.07574408  0.62501770  0.35303490    -0.13900
C1747       C  0.14068395  0.65055934  0.43917598    -0.12400
C1748       C  0.14445241  0.65019585  0.42450544     0.09700
C1749       C  0.16019762  0.67527574  0.41725715    -0.12400
C1750       C  0.17256104  0.70030874  0.42453706    -0.12400
C1751       C  0.16961205  0.70091351  0.43929811     0.09700
C1752       C  0.15314572  0.67574825  0.44652480    -0.12400
H1753       H  0.12847972  0.63135430  0.44493277     0.13700
H1754       H  0.16328767  0.67542167  0.40593318     0.13700
H1755       H  0.18458784  0.71915190  0.41851457     0.13700
H1756       H  0.15042282  0.67542154  0.45787121     0.13700
C1757       C  0.15020681  0.52766717  0.43976419    -0.12400
C1758       C  0.15414703  0.53184401  0.42507764     0.09700
C1759       C  0.17198635  0.52571872  0.41823200    -0.12400
C1760       C  0.18573056  0.51567692  0.42583255    -0.12400
C1761       C  0.18234819  0.51179843  0.44058310     0.09700
C1762       C  0.16423104  0.51773752  0.44747197    -0.12400
H1763       H  0.13643116  0.53223840  0.44523384     0.13700
H1764       H  0.17538958  0.52887039  0.40692393     0.13700
H1765       H  0.19908547  0.51111103  0.41999350     0.13700
H1766       H  0.16108788  0.51502323  0.45879166     0.13700
C1767       C  0.55548954  0.69951563  0.41891905    -0.12400
C1768       C  0.56001447  0.69915430  0.43355561     0.09700
C1769       C  0.55444384  0.67421266  0.43977464    -0.12400
C1770       C  0.54366972  0.65009024  0.43165410    -0.12400
C1771       C  0.53847226  0.65054098  0.41717931     0.09700
C1772       C  0.54479215  0.67547102  0.41084723    -0.12400
H1773       H  0.55970048  0.71819285  0.41362622     0.13700
H1774       H  0.55773757  0.67305244  0.45095849     0.13700
H1775       H  0.53883079  0.63093374  0.43669732     0.13700
H1776       H  0.54079140  0.67613262  0.39968863     0.13700
C1777       C  0.53178721  0.90943461  0.43801804    -0.12400
C1778       C  0.52185462  0.90079697  0.42421823     0.09700
C1779       C  0.52218529  0.87846104  0.41829519    -0.12400
C1780       C  0.53300456  0.86534419  0.42582597    -0.12400
C1781       C  0.54393711  0.87435838  0.43947616     0.09700
C1782       C  0.54278221  0.89627618  0.44561900    -0.12400
H1783       H  0.53153867  0.92664290  0.44274088     0.13700
H1784       H  0.51429357  0.87137941  0.40771118     0.13700
H1785       H  0.53282892  0.84818955  0.42081000     0.13700
H1786       H  0.55091481  0.90367470  0.45611694     0.13700
C1787       C  0.38245096  0.90853813  0.44503213    -0.12400
C1788       C  0.35711721  0.89207961  0.43807456     0.09700
C1789       C  0.35707626  0.88824507  0.42336799    -0.12400
C1790       C  0.38162652  0.89934634  0.41591024    -0.12400
C1791       C  0.40691092  0.91496756  0.42288329     0.09700
C1792       C  0.40719396  0.91996893  0.43747035    -0.12400
H1793       H  0.38322573  0.91194248  0.45633616     0.13700
H1794       H  0.33807345  0.87628481  0.41754110     0.13700
H1795       H  0.38091206  0.89529953  0.40466106     0.13700
H1796       H  0.42653981  0.93217924  0.44301977     0.13700
C1797       C  0.24327346  0.91658272  0.27081985    -0.12400
C1798       C  0.25961763  0.93261266  0.27932024    -0.13900
C1799       C  0.44066116  0.96522504  0.35603745    -0.12400
C1800       C  0.42765889  0.97222430  0.34911731    -0.13900
C1801       C  0.25345657  0.33490976  0.27792380    -0.12400
C1802       C  0.23723509  0.33468612  0.26968401    -0.13900
C1803       C  0.42329215  0.47048014  0.34759783    -0.12400
C1804       C  0.43729903  0.49131381  0.35435823    -0.13900
C1805       C  0.71042581  0.93400138  0.27784231    -0.12400
C1806       C  0.71279771  0.91980034  0.26914223    -0.13900
C1807       C  0.57695632  0.96253582  0.35061729    -0.12400
C1808       C  0.55655869  0.95587867  0.35750764    -0.13900
C1809       C  0.14051125  0.34367078  0.27238129    -0.12400
C1810       C  0.12675431  0.34570486  0.28139626    -0.13900
C1811       C  0.09252473  0.47896688  0.35199962    -0.12400
C1812       C  0.09755560  0.49871248  0.35913382    -0.13900
C1813       C  0.21539190  0.84667021  0.93885067    -0.12400
C1814       C  0.22112118  0.84136411  0.95018212    -0.13900
C1815       C  0.38979310  0.20235759  0.03983481    -0.12400
C1816       C  0.40287400  0.20905579  0.02901767    -0.13900
C1817       C  0.51718790  0.37996050  0.91842118    -0.12400
C1818       C  0.52281309  0.40450026  0.92496638     0.09700
C1819       C  0.51864988  0.40465772  0.93961396    -0.12400
C1820       C  0.50974108  0.38072012  0.94766827    -0.12400
C1821       C  0.50520780  0.35644245  0.94118136     0.09700
C1822       C  0.50847387  0.35616951  0.92644462    -0.12400
H1823       H  0.52043519  0.37950786  0.90715199     0.13700
H1824       H  0.52306592  0.42352108  0.94483207     0.13700
H1825       H  0.50748069  0.38152173  0.95900601     0.13700
H1826       H  0.50473871  0.33766011  0.92111249     0.13700
C1827       C  0.69652553  0.54925914  0.92831157    -0.12400
C1828       C  0.69625862  0.55116371  0.94315309     0.09700
C1829       C  0.67133555  0.54342964  0.94996431    -0.12400
C1830       C  0.64717058  0.53345959  0.94209160    -0.12400
C1831       C  0.64760987  0.53112091  0.92732097     0.09700
C1832       C  0.67245932  0.53919087  0.92051357    -0.12400
H1833       H  0.71524897  0.55532930  0.92261173     0.13700
H1834       H  0.67031205  0.54452975  0.96135913     0.13700
H1835       H  0.62807189  0.52721178  0.94750040     0.13700
H1836       H  0.67312991  0.53740117  0.90912210     0.13700
C1837       C  0.82202441  0.60948185  0.04053188    -0.12400
C1838       C  0.82793496  0.61932589  0.05218521    -0.13900
C1839       C  0.96624985  0.56137984  0.86036793    -0.12400
C1840       C  0.97213900  0.58091425  0.85289384    -0.13900
C1841       C  0.91416729  0.53454720  0.94075827    -0.12400
C1842       C  0.90798425  0.52830251  0.92636078     0.09700
C1843       C  0.88819802  0.53221825  0.92001765    -0.12400
C1844       C  0.87460522  0.54206580  0.92790351    -0.12400
C1845       C  0.88031178  0.54805548  0.94239956     0.09700
C1846       C  0.90040597  0.54432774  0.94873532    -0.12400
H1847       H  0.92947733  0.53166480  0.94580035     0.13700
H1848       H  0.88311766  0.52740053  0.90892289     0.13700
H1849       H  0.85944084  0.54463620  0.92253232     0.13700
H1850       H  0.90543451  0.54875946  0.95983521     0.13700
C1851       C  0.63396838  0.83516730  0.94996207    -0.12400
C1852       C  0.64535209  0.84212803  0.93860447    -0.13900
C1853       C  0.61800764  0.56812929  0.86440954    -0.12400
C1854       C  0.63251540  0.58808697  0.85716510    -0.13900
C1855       C  0.88154997  0.36077102  0.92730873    -0.12400
C1856       C  0.88726363  0.36034654  0.94174794     0.09700
C1857       C  0.90824642  0.38470155  0.94816005    -0.12400
C1858       C  0.92241638  0.40931452  0.94034936    -0.12400
C1859       C  0.91589974  0.40964355  0.92604191     0.09700
C1860       C  0.89572691  0.38514734  0.91955293    -0.12400
H1861       H  0.86592587  0.34228212  0.92195614     0.13700
H1862       H  0.91300927  0.38493114  0.95927016     0.13700
H1863       H  0.93790208  0.42819058  0.94550214     0.13700
H1864       H  0.89043585  0.38510988  0.90853459     0.13700
C1865       C  0.84389796  0.21005950  0.02784017    -0.12400
C1866       C  0.84969810  0.20477704  0.03917829    -0.13900
C1867       C  0.49984430  0.09746561  0.86064248    -0.12400
C1868       C  0.47988183  0.09317892  0.85413887    -0.13900
C1869       C  0.55029314  0.17288941  0.93019475    -0.12400
C1870       C  0.53412060  0.14398021  0.92974995     0.09700
C1871       C  0.51014836  0.12994662  0.93796117    -0.12400
C1872       C  0.50204164  0.14488517  0.94623902    -0.12400
C1873       C  0.51763332  0.17397287  0.94617583     0.09700
C1874       C  0.54210149  0.18776030  0.93828937    -0.12400
H1875       H  0.56884883  0.18394694  0.92389354     0.13700
H1876       H  0.49743369  0.10759172  0.93764841     0.13700
H1877       H  0.48305238  0.13376581  0.95218096     0.13700
H1878       H  0.55476624  0.21011856  0.93819488     0.13700
C1879       C  0.63052005  0.08514588  0.84823823    -0.12400
C1880       C  0.61743941  0.09095495  0.85596313    -0.13900
C1881       C  0.65652636  0.12374946  0.93341399    -0.12400
C1882       C  0.64778484  0.13826256  0.92522958     0.09700
C1883       C  0.66356548  0.16713258  0.92477610    -0.12400
C1884       C  0.68812773  0.18151213  0.93221340    -0.12400
C1885       C  0.69744737  0.16729122  0.94030256     0.09700
C1886       C  0.68125675  0.13824214  0.94098875    -0.12400
H1887       H  0.64440475  0.10137217  0.93379898     0.13700
H1888       H  0.65690574  0.17851150  0.91851006     0.13700
H1889       H  0.69964765  0.20384330  0.93163927     0.13700
H1890       H  0.68794183  0.12675971  0.94711410     0.13700
C1891       C  0.22939018  0.40939799  0.94889019    -0.12400
C1892       C  0.22368980  0.40033003  0.93700630    -0.13900
C1893       C  0.98219887  0.43242186  0.85292581    -0.12400
C1894       C  0.97523957  0.44471875  0.86049335    -0.13900
C1895       C  0.49408441  0.44260896  0.86105547    -0.12400
C1896       C  0.47512164  0.43084918  0.85291177    -0.13900
C1897       C  0.35673497  0.13037549  0.77907832    -0.12400
C1898       C  0.35515387  0.14502456  0.77039023    -0.13900
C1899       C  0.34941777  0.24471216  0.77204446    -0.12400
C1900       C  0.35035728  0.26159362  0.78011685    -0.13900
C1901       C  0.81856781  0.13969293  0.76984006    -0.12400
C1902       C  0.80148069  0.12398814  0.77824137    -0.13900
C1903       C  0.92105087  0.24886869  0.77000073    -0.12400
C1904       C  0.93643457  0.26602002  0.77842943    -0.13900
C1905       C  0.81558048  0.71219327  0.77261066    -0.12400
C1906       C  0.79992360  0.71110977  0.78155088    -0.13900
C1907       C  0.91514008  0.70802900  0.77291111    -0.12400
C1908       C  0.92989745  0.70595639  0.78123530    -0.13900
C1909       C  0.64423163  0.83285898  0.54225989    -0.12400
C1910       C  0.63144342  0.82546314  0.53133907    -0.13900
C1911       C  0.80821876  0.72217146  0.70269770    -0.12400
C1912       C  0.82293843  0.72173373  0.71170248    -0.13900
C1913       C  0.82016967  0.14067423  0.70950302    -0.12400
C1914       C  0.80388248  0.12541050  0.70072775    -0.13900
C1915       C  0.91634577  0.39031732  0.53695693    -0.12400
C1916       C  0.90117879  0.36506577  0.54431010     0.09700
C1917       C  0.89879579  0.36574434  0.55910399    -0.12400
C1918       C  0.90990058  0.39078595  0.56626328    -0.12400
C1919       C  0.92407424  0.41591018  0.55890312     0.09700
C1920       C  0.92775275  0.41557170  0.54421347    -0.12400
H1921       H  0.91872035  0.39063410  0.52558504     0.13700
H1922       H  0.88790467  0.34692961  0.56525069     0.13700
H1923       H  0.90694321  0.39056334  0.57760370     0.13700
H1924       H  0.93885487  0.43479241  0.53835831     0.13700
C1925       C  0.83956537  0.22568953  0.45076471    -0.12400
C1926       C  0.84378667  0.21931686  0.43932409    -0.13900
C1927       C  0.86496089  0.53527282  0.55710077    -0.12400
C1928       C  0.87460415  0.54755122  0.54371462     0.09700
C1929       C  0.89798917  0.54877179  0.53807365    -0.12400
C1930       C  0.91157932  0.53836476  0.54574370    -0.12400
C1931       C  0.90204581  0.52665698  0.55917030     0.09700
C1932       C  0.87858817  0.52504529  0.56473996    -0.12400
H1933       H  0.84690633  0.53353142  0.56180340     0.13700
H1934       H  0.90605776  0.55808163  0.52784276     0.13700
H1935       H  0.92977206  0.53984581  0.54133508     0.13700
H1936       H  0.87096332  0.51602202  0.57509219     0.13700
C1937       C  0.82793288  0.62966213  0.43474977    -0.12400
C1938       C  0.82260086  0.62039728  0.44661733    -0.13900
C1939       C  0.63300851  0.59248191  0.63344685    -0.12400
C1940       C  0.61850848  0.57261830  0.62612225    -0.13900
C1941       C  0.67226739  0.55589298  0.53811916    -0.12400
C1942       C  0.69725312  0.56310312  0.54467611     0.09700
C1943       C  0.69811117  0.56178612  0.55953029    -0.12400
C1944       C  0.67438672  0.55213596  0.56756597    -0.12400
C1945       C  0.64932426  0.54404424  0.56099021     0.09700
C1946       C  0.64846908  0.54645102  0.54623261    -0.12400
H1947       H  0.67083904  0.55667273  0.52672870     0.13700
H1948       H  0.71697019  0.56765377  0.56504272     0.13700
H1949       H  0.67542460  0.55029497  0.57893353     0.13700
H1950       H  0.62921378  0.54021091  0.54099407     0.13700
C1951       C  0.51282557  0.39213230  0.53837903    -0.12400
C1952       C  0.50635440  0.36731386  0.54506335     0.09700
C1953       C  0.50886063  0.36709315  0.55987979    -0.12400
C1954       C  0.51834416  0.39119171  0.56776758    -0.12400
C1955       C  0.52539740  0.41606049  0.56106213     0.09700
C1956       C  0.52233841  0.41633206  0.54631887    -0.12400
H1957       H  0.51125690  0.39306499  0.52700179     0.13700
H1958       H  0.50370346  0.34834078  0.56544803     0.13700
H1959       H  0.52067467  0.39057916  0.57912010     0.13700
H1960       H  0.52778530  0.43539354  0.54096031     0.13700
C1961       C  0.43447849  0.23375839  0.44879546    -0.12400
C1962       C  0.42384702  0.22705029  0.43728128    -0.13900
C1963       C  0.63344095  0.08603694  0.63192361    -0.12400
C1964       C  0.62078306  0.09353824  0.62506066    -0.13900
C1965       C  0.68432675  0.16890672  0.56743252    -0.12400
C1966       C  0.65960030  0.15290651  0.56001514     0.09700
C1967       C  0.66038133  0.14844387  0.54546739    -0.12400
C1968       C  0.68559504  0.16040146  0.53838926    -0.12400
C1969       C  0.71043911  0.17686605  0.54578007     0.09700
C1970       C  0.70944668  0.18062061  0.56042930    -0.12400
H1971       H  0.68413540  0.17252474  0.57868102     0.13700
H1972       H  0.64147765  0.13594967  0.53959546     0.13700
H1973       H  0.68549006  0.15703304  0.52711922     0.13700
H1974       H  0.72801239  0.19278210  0.56656018     0.13700
C1975       C  0.53502228  0.15468648  0.54252298    -0.12400
C1976       C  0.53976663  0.15895687  0.55714090     0.09700
C1977       C  0.53374204  0.17682453  0.56414134    -0.12400
C1978       C  0.52301850  0.19014173  0.55675848    -0.12400
C1979       C  0.51845638  0.18632286  0.54209182     0.09700
C1980       C  0.52448266  0.16835208  0.53502501    -0.12400
H1981       H  0.53949100  0.14085417  0.53696738     0.13700
H1982       H  0.53730828  0.18040499  0.57541963     0.13700
H1983       H  0.51833826  0.20340582  0.56267568     0.13700
H1984       H  0.52130318  0.16500001  0.52373560     0.13700
C1985       C  0.22223589  0.84018618  0.53220125    -0.12400
C1986       C  0.21829584  0.84509652  0.54406611    -0.13900
C1987       C  0.35341186  0.13355276  0.70053320    -0.12400
C1988       C  0.35147651  0.14723584  0.70966315    -0.13900
C1989       C  0.50657899  0.10594968  0.62312018    -0.12400
C1990       C  0.48664481  0.10105181  0.62986194    -0.13900
C1991       C  0.93730222  0.71655186  0.70481901    -0.12400
C1992       C  0.92203597  0.71736386  0.71335050    -0.13900
C1993       C  0.96455106  0.58257187  0.63195932    -0.12400
C1994       C  0.95973601  0.56247553  0.62523297    -0.13900
C1995       C  0.22336422  0.40719752  0.54197349    -0.12400
C1996       C  0.23072651  0.41984030  0.53097297    -0.13900
C1997       C  0.93917341  0.26779416  0.70261550    -0.12400
C1998       C  0.92292594  0.25007138  0.71061512    -0.13900
C1999       C  0.98741368  0.43930122  0.63119039    -0.12400
C2000       C  0.98043819  0.45234216  0.62416440    -0.13900
C2001       C  0.34557854  0.24522284  0.71205334    -0.12400
C2002       C  0.34579002  0.26079875  0.70330481    -0.13900
C2003       C  0.47230440  0.43429521  0.63195305    -0.12400
C2004       C  0.49233212  0.44840970  0.62475705    -0.13900
loop_ 
_geom_bond_atom_site_label_1 
_geom_bond_atom_site_label_2 
_geom_bond_distance 
_geom_bond_site_symmetry_2 
_ccdc_geom_bond_type 
N1            N2   1.322       .  A
N1            C5   1.349       .  A
N1           Cu9   2.080       .  S
N2            C3   1.339       .  A
N2           Cu8   2.055       .  S
C3            C4   1.378       .  A
C3            H6   1.082       .  S
C4            C5   1.385       .  A
C4           C69   1.466       .  S
C5            H7   1.082       .  S
Cu8          N11   2.055       .  S
Cu9          N19   2.082       .  S
Cu10         N12   2.077       .  S
Cu10         N18   2.079       .  S
N11          N12   1.321       .  A
N11          C15   1.343       .  A
N12          C13   1.347       .  A
C13          C14   1.382       .  A
C13          H16   1.082       .  S
C14          C15   1.377       .  A
C14        C2003   1.434       .  S
C15          H17   1.082       .  S
N18          N19   1.325       .  A
N18          C22   1.345       .  A
N19          C20   1.347       .  A
C20          C21   1.380       .  A
C20          H23   1.082       .  S
C21          C22   1.378       .  A
C21        C2002   1.439       .  S
C22          H24   1.082       .  S
N25          N26   1.322       .  A
N25          C29   1.348       .  A
N25         Cu33   2.083       .  S
N26          C27   1.343       .  A
N26         Cu32   2.070       .  S
C27          C28   1.381       .  A
C27          H30   1.082       .  S
C28          C29   1.385       .  A
C28          C52   1.471       .  S
C29          H31   1.082       .  S
Cu32         N35   2.070       .  S
Cu33         N43   2.084   1_455  S
Cu34         N36   2.088       .  S
Cu34         N42   2.088       .  S
N35          N36   1.323   1_455  A
N35          C39   1.345       .  A
N36          C37   1.349       .  A
C37          C38   1.384       .  A
C37          H40   1.082       .  S
C38          C39   1.379   1_655  A
C38        C1999   1.442       .  S
C39          H41   1.082       .  S
N42          N43   1.325       .  A
N42          C46   1.347       .  A
N43          C44   1.348       .  A
C44          C45   1.381       .  A
C44          H47   1.082       .  S
C45          C46   1.381       .  A
C45        C1997   1.444       .  S
C46          H48   1.082       .  S
N49          N50   1.324       .  A
N49          C53   1.348       .  A
N49         Cu57   2.082       .  S
N50          C51   1.343       .  A
N50         Cu56   2.075       .  S
C51          C52   1.381       .  A
C51          H54   1.082       .  S
C52          C53   1.384       .  A
C53          H55   1.082       .  S
Cu56         N59   2.073       .  S
Cu57         N67   2.081       .  S
Cu58         N60   2.062       .  S
Cu58         N66   2.062       .  S
N59          N60   1.320       .  A
N59          C63   1.346       .  A
N60          C61   1.345       .  A
C61          C62   1.380       .  A
C61          H64   1.082       .  S
C62          C63   1.381       .  A
C62        C1995   1.438       .  S
C63          H65   1.082       .  S
N66          N67   1.323       .  A
N66          C70   1.339       .  A
N67          C68   1.349       .  A
C68          C69   1.384       .  A
C68          H71   1.082       .  S
C69          C70   1.378       .  A
C70          H72   1.082       .  S
N73          N74   1.320       .  A
N73          C77   1.349       .  A
N73         Cu81   2.079       .  S
N74          C75   1.342       .  A
N74         Cu80   2.055   1_655  S
C75          C76   1.376       .  A
C75          H78   1.082   1_655  S
C76          C77   1.384       .  A
C76        C1993   1.437       .  S
C77          H79   1.082       .  S
Cu80         N83   2.056       .  S
Cu81         N91   2.080       .  S
Cu82         N84   2.087       .  S
Cu82         N90   2.089   1_455  S
N83          N84   1.322       .  A
N83          C87   1.340       .  A
N84          C85   1.350       .  A
C85          C86   1.387       .  A
C85          H88   1.082       .  S
C86          C87   1.378       .  A
C86         C134   1.470       .  S
C87          H89   1.082       .  S
N90          N91   1.326       .  A
N90          C94   1.349       .  A
N91          C92   1.344       .  A
C92          C93   1.377       .  A
C92          H95   1.082       .  S
C93          C94   1.382       .  A
C93        C1991   1.440       .  S
C94          H96   1.082       .  S
N97          N98   1.322       .  A
N97         C101   1.348       .  A
N97        Cu105   2.077       .  S
N98          C99   1.341       .  A
N98        Cu104   2.058       .  S
C99         C100   1.375       .  A
C99         H102   1.082       .  S
C100        C101   1.382       .  A
C100       C1990   1.433       .  S
C101        H103   1.082       .  S
Cu104       N107   2.058       .  S
Cu105       N115   2.078       .  S
Cu106       N108   2.080       .  S
Cu106       N114   2.081       .  S
N107        N108   1.321       .  A
N107        C111   1.340   1_545  A
N108        C109   1.349   1_545  A
C109        C110   1.386       .  A
C109        H112   1.082       .  S
C110        C111   1.380       .  A
C110        C124   1.470       .  S
C111        H113   1.082       .  S
N114        N115   1.325       .  A
N114        C118   1.346       .  A
N115        C116   1.345       .  A
C116        C117   1.379       .  A
C116        H119   1.082       .  S
C117        C118   1.379       .  A
C117       C1987   1.437       .  S
C118        H120   1.082       .  S
N121        N122   1.323       .  A
N121        C125   1.341       .  A
N121       Cu129   2.069       .  S
N122        C123   1.349       .  A
N122       Cu128   2.083       .  S
C123        C124   1.385       .  A
C123        H126   1.082       .  S
C124        C125   1.380       .  A
C125        H127   1.082       .  S
Cu128       N131   2.083       .  S
Cu129       N139   2.068       .  S
Cu130       N132   2.066       .  S
Cu130       N138   2.065       .  S
N131        N132   1.323       .  A
N131        C135   1.349       .  A
N132        C133   1.341       .  A
C133        C134   1.381       .  A
C133        H136   1.082       .  S
C134        C135   1.384       .  A
C135        H137   1.082       .  S
N138        N139   1.321       .  A
N138        C142   1.344       .  A
N139        C140   1.345       .  A
C140        C141   1.380       .  A
C140        H143   1.082       .  S
C141        C142   1.379       .  A
C141       C1986   1.435       .  S
C142        H144   1.082       .  S
N145        C150   1.352       .  A
N145        C149   1.353       .  A
N145        H177   1.039       .  S
N146        C153   1.348       .  A
N146        C154   1.348       .  A
N147        C152   1.351       .  A
N147        C151   1.352       .  A
N147        H178   1.039       .  S
N148        C155   1.351       .  A
N148        C156   1.351       .  A
C149        C157   1.389       .  A
C149        C165   1.414       .  A
C150        C166   1.412       .  A
C150        C158   1.385       .  A
C151        C159   1.388       .  A
C151        C168   1.412       .  A
C152        C167   1.412       .  A
C152        C160   1.387       .  A
C153        C165   1.408       .  A
C153        C161   1.386       .  A
C154        C168   1.408       .  A
C154        C162   1.387       .  A
C155        C163   1.387       .  A
C155        C166   1.412       .  A
C156        C164   1.386       .  A
C156        C167   1.410       .  A
C157        C158   1.374       .  A
C157        H169   1.082       .  S
C158        H170   1.082       .  S
C159        C160   1.374       .  A
C159        H171   1.082       .  S
C160        H172   1.083       .  S
C161        C162   1.377       .  A
C161        H173   1.082       .  S
C162        H174   1.082       .  S
C163        C164   1.373       .  A
C163        H175   1.082       .  S
C164        H176   1.082       .  S
C165       C1964   1.448       .  S
C166       C1966   1.485       .  S
C167       C1976   1.483       .  S
C168       C1989   1.447       .  S
N179        N180   1.319       .  A
N179        C183   1.350       .  A
N179       Cu187   2.091       .  S
N180        C181   1.339       .  A
N180       Cu186   2.049       .  S
C181        C182   1.383       .  A
C181        H184   1.081       .  S
C182        C183   1.393       .  A
C182       C1952   1.485       .  S
C183        H185   1.081       .  S
Cu186       N189   2.048       .  S
Cu187       N197   2.093       .  S
Cu188       N190   2.068       .  S
Cu188       N196   2.071       .  S
N189        N190   1.318       .  A
N189        C193   1.337       .  A
N190        C191   1.347       .  A
C191        C192   1.390       .  A
C191        H194   1.081       .  S
C192        C193   1.384       .  A
C192       C1979   1.481       .  S
C193        H195   1.081       .  S
N196        N197   1.326       .  A
N196        C200   1.344       .  A
N197        C198   1.347       .  A
C198        C199   1.381       .  A
C198        H201   1.082       .  S
C199        C200   1.376       .  A
C199       C1961   1.437       .  S
C200        H202   1.082       .  S
N203        C208   1.353       .  A
N203        C207   1.355       .  A
N203        H235   1.041       .  S
N204        C211   1.352       .  A
N204        C212   1.351       .  A
N205        C210   1.353       .  A
N205        C209   1.351       .  A
N205        H236   1.039       .  S
N206        C213   1.350       .  A
N206        C214   1.351       .  A
C207        C215   1.387       .  A
C207        C223   1.414       .  A
C208        C224   1.414       .  A
C208        C216   1.388       .  A
C209        C217   1.388       .  A
C209        C226   1.413       .  A
C210        C225   1.413       .  A
C210        C218   1.387       .  A
C211        C223   1.411       .  A
C211        C219   1.385       .  A
C212        C226   1.412       .  A
C212        C220   1.388       .  A
C213        C221   1.386       .  A
C213        C224   1.412       .  A
C214        C222   1.387       .  A
C214        C225   1.411       .  A
C215        C216   1.373       .  A
C215        H227   1.082       .  S
C216        H228   1.082       .  S
C217        C218   1.378       .  A
C217        H229   1.082       .  S
C218        H230   1.082       .  S
C219        C220   1.372       .  A
C219        H231   1.082       .  S
C220        H232   1.082       .  S
C221        C222   1.372       .  A
C221        H233   1.082       .  S
C222        H234   1.082       .  S
C223       C1955   1.489       .  S
C224       C1945   1.484       .  S
C225       C1940   1.451       .  S
C226       C2004   1.447       .  S
N237        N238   1.319       .  A
N237        C241   1.349       .  A
N237       Cu245   2.081       .  S
N238        C239   1.337       .  A
N238       Cu244   2.050       .  S
C239        C240   1.383       .  A
C239        H242   1.081       .  S
C240        C241   1.392       .  A
C240       C1942   1.483       .  S
C241        H243   1.081       .  S
Cu244       N247   2.051       .  S
Cu245       N255   2.084       .  S
Cu246       N248   2.086       .  S
Cu246       N254   2.088       .  S
N247        N248   1.318       .  A
N247        C251   1.340       .  A
N248        C249   1.349       .  A
C249        C250   1.393       .  A
C249        H252   1.081       .  S
C250        C251   1.385       .  A
C250       C1928   1.488       .  S
C251        H253   1.081       .  S
N254        N255   1.327       .  A
N254        C258   1.346       .  A
N255        C256   1.347       .  A
C256        C257   1.379       .  A
C256        H259   1.082       .  S
C257        C258   1.379       .  A
C257       C1938   1.440       .  S
C258        H260   1.082       .  S
N261        N262   1.320       .  A
N261        C265   1.350       .  A
N261       Cu269   2.086       .  S
N262        C263   1.339       .  A
N262       Cu268   2.060       .  S
C263        C264   1.386       .  A
C263        H266   1.081       .  S
C264        C265   1.393       .  A
C264       C1916   1.488       .  S
C265        H267   1.081       .  S
Cu268       N271   2.060       .  S
Cu269       N279   2.086       .  S
Cu270       N272   2.066       .  S
Cu270       N278   2.068       .  S
N271        N272   1.319       .  A
N271        C275   1.341       .  A
N272        C273   1.345       .  A
C273        C274   1.389       .  A
C273        H276   1.081       .  S
C274        C275   1.387       .  A
C274       C1969   1.483       .  S
C275        H277   1.081       .  S
N278        N279   1.325       .  A
N278        C282   1.344       .  A
N279        C280   1.346       .  A
C280        C281   1.380       .  A
C280        H283   1.082       .  S
C281        C282   1.376       .  A
C281       C1925   1.435       .  S
C282        H284   1.082       .  S
N285        C290   1.352       .  A
N285        C289   1.354       .  A
N285        H317   1.039       .  S
N286        C293   1.351       .  A
N286        C294   1.350       .  A
N287        C292   1.353       .  A
N287        C291   1.353       .  A
N287        H318   1.038       .  S
N288        C295   1.352       .  A
N288        C296   1.352       .  A
C289        C297   1.388       .  A
C289        C305   1.415       .  A
C290        C306   1.415       .  A
C290        C298   1.386       .  A
C291        C299   1.389       .  A
C291        C308   1.415       .  A
C292        C307   1.413       .  A
C292        C300   1.386       .  A
C293        C305   1.412       .  A
C293        C301   1.386       .  A
C294        C308   1.412       .  A
C294        C302   1.387       .  A
C295        C303   1.387       .  A
C295        C306   1.415       .  A
C296        C304   1.385       .  A
C296        C307   1.411       .  A
C297        C298   1.376       .  A
C297        H309   1.082       .  S
C298        H310   1.082       .  S
C299        C300   1.374       .  A
C299        H311   1.082       .  S
C300        H312   1.083       .  S
C301        C302   1.377       .  A
C301        H313   1.082       .  S
C302        H314   1.082       .  S
C303        C304   1.374       .  A
C303        H315   1.082       .  S
C304        H316   1.082       .  S
C305       C2000   1.454       .  S
C306       C1919   1.489       .  S
C307       C1931   1.484       .  S
C308       C1994   1.450       .  S
N319        N320   1.322       .  A
N319        C323   1.348   1_545  A
N319       Cu327   2.083       .  S
N320        C321   1.343   1_545  A
N320       Cu326   2.071       .  S
C321        C322   1.382       .  A
C321        H324   1.082       .  S
C322        C323   1.386       .  A
C322        C370   1.473       .  S
C323        H325   1.082       .  S
Cu326       N329   2.071       .  S
Cu327       N337   2.084       .  S
Cu328       N330   2.074       .  S
Cu328       N336   2.076       .  S
N329        N330   1.322       .  A
N329        C333   1.344       .  A
N330        C331   1.347       .  A
C331        C332   1.381       .  A
C331        H334   1.082       .  S
C332        C333   1.378       .  A
C332       C1963   1.436       .  S
C333        H335   1.082       .  S
N336        N337   1.325       .  A
N336        C340   1.345       .  A
N337        C338   1.347       .  A
C338        C339   1.381       .  A
C338        H341   1.082       .  S
C339        C340   1.379       .  A
C339       C1914   1.439       .  S
C340        H342   1.082       .  S
N343        N344   1.322       .  A
N343        C347   1.351       .  A
N343       Cu351   2.088       .  S
N344        C345   1.338       .  A
N344       Cu350   2.053       .  S
C345        C346   1.376       .  A
C345        H348   1.082       .  S
C346        C347   1.387       .  A
C346        C387   1.468       .  S
C347        H349   1.082       .  S
Cu350       N353   2.053       .  S
Cu351       N361   2.089       .  S
Cu352       N354   2.079       .  S
Cu352       N360   2.079       .  S
N353        N354   1.320       .  A
N353        C357   1.342       .  A
N354        C355   1.348       .  A
C355        C356   1.384       .  A
C355        H358   1.082       .  S
C356        C357   1.377       .  A
C356       C1939   1.438       .  S
C357        H359   1.082       .  S
N360        N361   1.326       .  A
N360        C364   1.344       .  A
N361        C362   1.348       .  A
C362        C363   1.381       .  A
C362        H365   1.082       .  S
C363        C364   1.377       .  A
C363       C1911   1.438       .  S
C364        H366   1.082       .  S
N367        N368   1.323       .  A
N367        C371   1.348       .  A
N367       Cu375   2.082       .  S
N368        C369   1.344       .  A
N368       Cu374   2.075       .  S
C369        C370   1.382       .  A
C369        H372   1.082       .  S
C370        C371   1.385       .  A
C371        H373   1.082       .  S
Cu374       N377   2.073       .  S
Cu375       N385   2.080       .  S
Cu376       N378   2.066       .  S
Cu376       N384   2.067       .  S
N377        N378   1.322       .  A
N377        C381   1.345       .  A
N378        C379   1.345       .  A
C379        C380   1.379       .  A
C379        H382   1.082       .  S
C380        C381   1.380       .  A
C380       C1909   1.436       .  S
C381        H383   1.082       .  S
N384        N385   1.323       .  A
N384        C388   1.340       .  A
N385        C386   1.349       .  A
C386        C387   1.384       .  A
C386        H389   1.082       .  S
C387        C388   1.381       .  A
C388        H390   1.082       .  S
O391       Cu399   2.015       .  S
O391        C401   1.277       .  A
O392       Cu399   2.018       .  S
O392        C402   1.277       .  A
O393       Cu399   2.008       .  S
O393        C403   1.276       .  A
O394       Cu399   2.012       .  S
O394        C404   1.276       .  A
O395       Cu400   2.009       .  S
O395        C404   1.277       .  A
O396       Cu400   2.006       .  S
O396        C403   1.276       .  A
O397       Cu400   2.016       .  S
O397        C402   1.277       .  A
O398       Cu400   2.012       .  S
O398        C401   1.277       .  A
Cu399      Cu400   2.379       .  S
C401       C1992   1.438       .  S
C402       C1905   1.441       .  S
C403       C1907   1.433       .  S
C404       C1912   1.436       .  S
O405       Cu413   2.015       .  S
O405        C415   1.277       .  A
O406       Cu413   2.018       .  S
O406        C416   1.277       .  A
O407       Cu413   2.021       .  S
O407        C417   1.278       .  A
O408       Cu413   2.024       .  S
O408        C418   1.278       .  A
O409       Cu414   2.014       .  S
O409        C418   1.277       .  A
O410       Cu414   2.015       .  S
O410        C417   1.277       .  A
O411       Cu414   2.008       .  S
O411        C416   1.276       .  A
O412       Cu414   2.007       .  S
O412        C415   1.276       .  A
Cu413      Cu414   2.378       .  S
C415       C1903   1.436       .  S
C416       C1913   1.437       .  S
C417       C1998   1.442       .  S
C418       C1901   1.442       .  S
O419       Cu427   2.015       .  S
O419        C429   1.277       .  A
O420       Cu427   2.014       .  S
O420        C430   1.277       .  A
O421       Cu427   2.013       .  S
O421        C431   1.277       .  A
O422       Cu427   2.014       .  S
O422        C432   1.277       .  A
O423       Cu428   2.005       .  S
O423        C432   1.276       .  A
O424       Cu428   2.006       .  S
O424        C431   1.276       .  A
O425       Cu428   2.011       .  S
O425        C430   1.276       .  A
O426       Cu428   2.009       .  S
O426        C429   1.276       .  A
Cu427      Cu428   2.380       .  S
C429       C2001   1.437       .  S
C430       C1898   1.436       .  S
C431       C1899   1.434       .  S
C432       C1988   1.435       .  S
N433        N434   1.322       .  A
N433        C437   1.350       .  A
N433       Cu441   2.083       .  S
N434        C435   1.340       .  A
N434       Cu440   2.062       .  S
C435        C436   1.379       .  A
C435        H438   1.082       .  S
C436        C437   1.386       .  A
C436        C501   1.470       .  S
C437        H439   1.082       .  S
Cu440       N443   2.062       .  S
Cu441       N451   2.084       .  S
Cu442       N444   2.070       .  S
Cu442       N450   2.071       .  S
N443        N444   1.321       .  A
N443        C447   1.344       .  A
N444        C445   1.346       .  A
C445        C446   1.381       .  A
C445        H448   1.082       .  S
C446        C447   1.378       .  A
C446       C1896   1.435       .  S
C447        H449   1.082       .  S
N450        N451   1.325       .  A
N450        C454   1.344       .  A
N451        C452   1.347       .  A
C452        C453   1.380       .  A
C452        H455   1.082       .  S
C453        C454   1.377       .  A
C453       C1900   1.436       .  S
C454        H456   1.082       .  S
N457        N458   1.321       .  A
N457        C461   1.348       .  A
N457       Cu465   2.079       .  S
N458        C459   1.343       .  A
N458       Cu464   2.065       .  S
C459        C460   1.381       .  A
C459        H462   1.082       .  S
C460        C461   1.385       .  A
C460        C484   1.471       .  S
C461        H463   1.082       .  S
Cu464       N467   2.064       .  S
Cu465       N475   2.080   1_455  S
Cu466       N468   2.080       .  S
Cu466       N474   2.081       .  S
N467        N468   1.322   1_455  A
N467        C471   1.343       .  A
N468        C469   1.348       .  A
C469        C470   1.382       .  A
C469        H472   1.082       .  S
C470        C471   1.377   1_655  A
C470       C1893   1.436       .  S
C471        H473   1.082       .  S
N474        N475   1.325       .  A
N474        C478   1.346       .  A
N475        C476   1.346       .  A
C476        C477   1.379       .  A
C476        H479   1.082       .  S
C477        C478   1.380       .  A
C477       C1904   1.438       .  S
C478        H480   1.082       .  S
N481        N482   1.324       .  A
N481        C485   1.348       .  A
N481       Cu489   2.086       .  S
N482        C483   1.343       .  A
N482       Cu488   2.073       .  S
C483        C484   1.380       .  A
C483        H486   1.082       .  S
C484        C485   1.384       .  A
C485        H487   1.082       .  S
Cu488       N491   2.072       .  S
Cu489       N499   2.085       .  S
Cu490       N492   2.066       .  S
Cu490       N498   2.067       .  S
N491        N492   1.321       .  A
N491        C495   1.346       .  A
N492        C493   1.345       .  A
C493        C494   1.380       .  A
C493        H496   1.082       .  S
C494        C495   1.381       .  A
C494       C1892   1.438       .  S
C495        H497   1.082       .  S
N498        N499   1.323       .  A
N498        C502   1.340       .  A
N499        C500   1.350       .  A
C500        C501   1.385       .  A
C500        H503   1.082       .  S
C501        C502   1.379       .  A
C502        H504   1.082       .  S
N505        C510   1.355       .  A
N505        C509   1.354       .  A
N505        H537   1.038       .  S
N506        C513   1.348       .  A
N506        C514   1.350       .  A
N507        C512   1.352       .  A
N507        C511   1.355       .  A
N507        H538   1.038       .  S
N508        C515   1.353       .  A
N508        C516   1.351       .  A
C509        C517   1.389       .  A
C509        C525   1.417       .  A
C510        C526   1.414       .  A
C510        C518   1.386       .  A
C511        C519   1.388       .  A
C511        C528   1.416       .  A
C512        C527   1.413       .  A
C512        C520   1.388       .  A
C513        C525   1.411       .  A
C513        C521   1.388       .  A
C514        C528   1.409       .  A
C514        C522   1.386       .  A
C515        C523   1.385       .  A
C515        C526   1.411       .  A
C516        C524   1.387       .  A
C516        C527   1.411       .  A
C517        C518   1.372       .  A
C517        H529   1.082       .  S
C518        H530   1.082       .  S
C519        C520   1.372       .  A
C519        H531   1.082       .  S
C520        H532   1.082       .  S
C521        C522   1.372       .  A
C521        H533   1.082       .  S
C522        H534   1.083       .  S
C523        C524   1.375       .  A
C523        H535   1.082       .  S
C524        H536   1.082       .  S
C525       C1882   1.476       .  S
C526       C1880   1.456       .  S
C527       C1867   1.446       .  S
C528       C1870   1.482       .  S
N539        N540   1.318       .  A
N539        C543   1.350       .  A
N539       Cu547   2.079       .  S
N540        C541   1.336       .  A
N540       Cu546   2.038       .  S
C541        C542   1.380       .  A
C541        H544   1.082       .  S
C542        C543   1.391       .  A
C542       C1856   1.477       .  S
C543        H545   1.082       .  S
Cu546       N549   2.038       .  S
Cu547       N557   2.082       .  S
Cu548       N550   2.081       .  S
Cu548       N556   2.085       .  S
N549        N550   1.318       .  A
N549        C553   1.336       .  A
N550        C551   1.349       .  A
C551        C552   1.391       .  A
C551        H554   1.082       .  S
C552        C553   1.381       .  A
C552       C1885   1.479       .  S
C553        H555   1.081       .  S
N556        N557   1.327       .  A
N556        C560   1.346   1_556  A
N557        C558   1.345   1_556  A
C558        C559   1.377       .  A
C558        H561   1.082       .  S
C559        C560   1.379       .  A
C559       C1865   1.436       .  S
C560        H562   1.082       .  S
N563        N564   1.322       .  A
N563        C567   1.349   1_545  A
N563       Cu571   2.081       .  S
N564        C565   1.343   1_545  A
N564       Cu570   2.072       .  S
C565        C566   1.383       .  A
C565        H568   1.082       .  S
C566        C567   1.385       .  A
C566        C614   1.474       .  S
C567        H569   1.082       .  S
Cu570       N573   2.071       .  S
Cu571       N581   2.083       .  S
Cu572       N574   2.091       .  S
Cu572       N580   2.091       .  S
N573        N574   1.322       .  A
N573        C577   1.344       .  A
N574        C575   1.351       .  A
C575        C576   1.386       .  A
C575        H578   1.082       .  S
C576        C577   1.378       .  A
C576       C1879   1.443       .  S
C577        H579   1.082       .  S
N580        N581   1.326       .  A
N580        C584   1.347       .  A
N581        C582   1.348       .  A
C582        C583   1.381       .  A
C582        H585   1.082       .  S
C583        C584   1.381       .  A
C583       C1902   1.444       .  S
C584        H586   1.082       .  S
N587        N588   1.321       .  A
N587        C591   1.353       .  A
N587       Cu595   2.096       .  S
N588        C589   1.339       .  A
N588       Cu594   2.054       .  S
C589        C590   1.379       .  A
C589        H592   1.082       .  S
C590        C591   1.391       .  A
C590        C631   1.475       .  S
C591        H593   1.082       .  S
Cu594       N597   2.054       .  S
Cu595       N605   2.098       .  S
Cu596       N598   2.082       .  S
Cu596       N604   2.084       .  S
N597        N598   1.321       .  A
N597        C601   1.342       .  A
N598        C599   1.348       .  A
C599        C600   1.384       .  A
C599        H602   1.082       .  S
C600        C601   1.376       .  A
C600       C1854   1.435       .  S
C601        H603   1.082       .  S
N604        N605   1.327       .  A
N604        C608   1.347       .  A
N605        C606   1.348       .  A
C606        C607   1.381       .  A
C606        H609   1.082       .  S
C607        C608   1.379       .  A
C607       C1906   1.443       .  S
C608        H610   1.082       .  S
N611        N612   1.324       .  A
N611        C615   1.350       .  A
N611       Cu619   2.092       .  S
N612        C613   1.343       .  A
N612       Cu618   2.074       .  S
C613        C614   1.380       .  A
C613        H616   1.082       .  S
C614        C615   1.386       .  A
C615        H617   1.082       .  S
Cu618       N621   2.073       .  S
Cu619       N629   2.092       .  S
Cu620       N622   2.074       .  S
Cu620       N628   2.075       .  S
N621        N622   1.321       .  A
N621        C625   1.347       .  A
N622        C623   1.346       .  A
C623        C624   1.381       .  A
C623        H626   1.082       .  S
C624        C625   1.382       .  A
C624       C1852   1.441       .  S
C625        H627   1.082       .  S
N628        N629   1.324       .  A
N628        C632   1.341       .  A
N629        C630   1.352       .  A
C630        C631   1.387       .  A
C630        H633   1.082       .  S
C631        C632   1.381       .  A
C632        H634   1.082       .  S
N635        C640   1.352       .  A
N635        C639   1.353       .  A
N635        H667   1.037       .  S
N636        C643   1.350       .  A
N636        C644   1.350       .  A
N637        C642   1.352       .  A
N637        C641   1.353       .  A
N637        H668   1.038       .  S
N638        C645   1.351       .  A
N638        C646   1.352       .  A
C639        C647   1.389       .  A
C639        C655   1.416       .  A
C640        C656   1.413       .  A
C640        C648   1.386       .  A
C641        C649   1.388       .  A
C641        C658   1.414       .  A
C642        C657   1.413       .  A
C642        C650   1.386       .  A
C643        C655   1.411       .  A
C643        C651   1.387       .  A
C644        C658   1.410       .  A
C644        C652   1.387       .  A
C645        C653   1.387       .  A
C645        C656   1.412       .  A
C646        C654   1.386       .  A
C646        C657   1.411       .  A
C647        C648   1.376       .  A
C647        H659   1.082       .  S
C648        H660   1.083       .  S
C649        C650   1.374       .  A
C649        H661   1.082       .  S
C650        H662   1.082       .  S
C651        C652   1.374       .  A
C651        H663   1.082       .  S
C652        H664   1.082       .  S
C653        C654   1.370       .  A
C653        H665   1.082       .  S
C654        H666   1.082       .  S
C655       C1894   1.449       .  S
C656       C1859   1.481       .  S
C657       C1842   1.483       .  S
C658       C1839   1.448       .  S
N669        N670   1.318       .  A
N669        C673   1.347       .  A
N669       Cu677   2.070       .  S
N670        C671   1.338       .  A
N670       Cu676   2.053       .  S
C671        C672   1.385       .  A
C671        H674   1.081       .  S
C672        C673   1.391       .  A
C672       C1828   1.483       .  S
C673        H675   1.081       .  S
Cu676       N679   2.053       .  S
Cu677       N687   2.072   1_556  S
Cu678       N680   2.067       .  S
Cu678       N686   2.068   1_556  S
N679        N680   1.318       .  A
N679        C683   1.338       .  A
N680        C681   1.347       .  A
C681        C682   1.391       .  A
C681        H684   1.081       .  S
C682        C683   1.386       .  A
C682       C1845   1.484       .  S
C683        H685   1.080       .  S
N686        N687   1.326       .  A
N686        C690   1.343       .  A
N687        C688   1.344       .  A
C688        C689   1.376       .  A
C688        H691   1.082       .  S
C689        C690   1.375       .  A
C689       C1837   1.428       .  S
C690        H692   1.082       .  S
N693        C698   1.353       .  A
N693        C697   1.354       .  A
N693        H725   1.041       .  S
N694        C701   1.350       .  A
N694        C702   1.351       .  A
N695        C700   1.352       .  A
N695        C699   1.353       .  A
N695        H726   1.039       .  S
N696        C703   1.352       .  A
N696        C704   1.352       .  A
C697        C705   1.387       .  A
C697        C713   1.414       .  A
C698        C714   1.414       .  A
C698        C706   1.387       .  A
C699        C707   1.387       .  A
C699        C716   1.412       .  A
C700        C715   1.412       .  A
C700        C708   1.388       .  A
C701        C713   1.411       .  A
C701        C709   1.386       .  A
C702        C716   1.410       .  A
C702        C710   1.387       .  A
C703        C711   1.386       .  A
C703        C714   1.412       .  A
C704        C712   1.387       .  A
C704        C715   1.412       .  A
C705        C706   1.373       .  A
C705        H717   1.082       .  S
C706        H718   1.082       .  S
C707        C708   1.376       .  A
C707        H719   1.082       .  S
C708        H720   1.082       .  S
C709        C710   1.372       .  A
C709        H721   1.082       .  S
C710        H722   1.082       .  S
C711        C712   1.373       .  A
C711        H723   1.082       .  S
C712        H724   1.082       .  S
C713       C1831   1.484       .  S
C714       C1818   1.485       .  S
C715       C1895   1.448       .  S
C716       C1853   1.449       .  S
N727        N728   1.320       .  A
N727        C731   1.348       .  A
N727       Cu735   2.077       .  S
N728        C729   1.339       .  A
N728       Cu734   2.055       .  S
C729        C730   1.382       .  A
C729        H732   1.082       .  S
C730        C731   1.389       .  A
C730       C1821   1.478       .  S
C731        H733   1.082       .  S
Cu734       N737   2.055       .  S
Cu735       N745   2.079       .  S
Cu736       N738   2.076       .  S
Cu736       N744   2.077       .  S
N737        N738   1.320       .  A
N737        C741   1.339       .  A
N738        C739   1.348       .  A
C739        C740   1.388       .  A
C739        H742   1.082       .  S
C740        C741   1.382       .  A
C740       C1873   1.478       .  S
C741        H743   1.082       .  S
N744        N745   1.326       .  A
N744        C748   1.345   1_556  A
N745        C746   1.345   1_556  A
C746        C747   1.377       .  A
C746        H749   1.082       .  S
C747        C748   1.377       .  A
C747       C1816   1.434       .  S
C748        H750   1.082       .  S
N751        N752   1.322   1_655  A
N751        C755   1.347       .  A
N751       Cu759   2.074       .  S
N752        C753   1.343       .  A
N752       Cu758   2.062       .  S
C753        C754   1.377   1_455  A
C753        H756   1.082       .  S
C754        C755   1.382       .  A
C754       C1840   1.435       .  S
C755        H757   1.082       .  S
Cu758       N761   2.062       .  S
Cu759       N769   2.075       .  S
Cu760       N762   2.077       .  S
Cu760       N768   2.079   1_455  S
N761        N762   1.321       .  A
N761        C765   1.340       .  A
N762        C763   1.350       .  A
C763        C764   1.386       .  A
C763        H766   1.082       .  S
C764        C765   1.380       .  A
C764        C812   1.470       .  S
C765        H767   1.082       .  S
N768        N769   1.326       .  A
N768        C772   1.345       .  A
N769        C770   1.345       .  A
C770        C771   1.378       .  A
C770        H773   1.082       .  S
C771        C772   1.378       .  A
C771       C1908   1.434       .  S
C772        H774   1.082       .  S
N775        N776   1.322       .  A
N775        C779   1.347       .  A
N775       Cu783   2.070       .  S
N776        C777   1.342       .  A
N776       Cu782   2.062       .  S
C777        C778   1.377       .  A
C777        H780   1.082       .  S
C778        C779   1.380       .  A
C778       C1868   1.432       .  S
C779        H781   1.082       .  S
Cu782       N785   2.063       .  S
Cu783       N793   2.072       .  S
Cu784       N786   2.080       .  S
Cu784       N792   2.082       .  S
N785        N786   1.322       .  A
N785        C789   1.340   1_545  A
N786        C787   1.349   1_545  A
C787        C788   1.385       .  A
C787        H790   1.082       .  S
C788        C789   1.381       .  A
C788        C802   1.471       .  S
C789        H791   1.082       .  S
N792        N793   1.325       .  A
N792        C796   1.346       .  A
N793        C794   1.345       .  A
C794        C795   1.378       .  A
C794        H797   1.082       .  S
C795        C796   1.380       .  A
C795       C1897   1.438       .  S
C796        H798   1.082       .  S
N799        N800   1.323       .  A
N799        C803   1.339       .  A
N799       Cu807   2.057       .  S
N800        C801   1.351       .  A
N800       Cu806   2.092       .  S
C801        C802   1.388       .  A
C801        H804   1.082       .  S
C802        C803   1.378       .  A
C803        H805   1.082       .  S
Cu806       N809   2.092       .  S
Cu807       N817   2.056       .  S
Cu808       N810   2.067       .  S
Cu808       N816   2.066       .  S
N809        N810   1.324       .  A
N809        C813   1.350       .  A
N810        C811   1.341       .  A
C811        C812   1.379       .  A
C811        H814   1.082       .  S
C812        C813   1.386       .  A
C813        H815   1.082       .  S
N816        N817   1.320       .  A
N816        C820   1.345       .  A
N817        C818   1.344       .  A
C818        C819   1.378       .  A
C818        H821   1.082       .  S
C819        C820   1.380       .  A
C819       C1813   1.433       .  S
C820        H822   1.082       .  S
N823        N824   1.322       .  A
N823        C827   1.350       .  A
N823       Cu831   2.085       .  S
N824        C825   1.343       .  A
N824       Cu830   2.065       .  S
C825        C826   1.377       .  A
C825        H828   1.082       .  S
C826        C827   1.385       .  A
C826       C1811   1.439       .  S
C827        H829   1.082       .  S
Cu830       N833   2.065       .  S
Cu831       N841   2.085       .  S
Cu832       N834   2.073       .  S
Cu832       N840   2.075       .  S
N833        N834   1.321       .  A
N833        C837   1.341   1_455  A
N834        C835   1.348   1_455  A
C835        C836   1.384       .  A
C835        H838   1.082       .  S
C836        C837   1.381       .  A
C836        C884   1.468       .  S
C837        H839   1.082       .  S
N840        N841   1.325       .  A
N840        C844   1.346       .  A
N841        C842   1.346       .  A
C842        C843   1.379       .  A
C842        H845   1.082       .  S
C843        C844   1.379       .  A
C843       C1810   1.438       .  S
C844        H846   1.082       .  S
N847        N848   1.322       .  A
N847        C851   1.350       .  A
N847       Cu855   2.091       .  S
N848        C849   1.344       .  A
N848       Cu854   2.068   1_565  S
C849        C850   1.379       .  A
C849        H852   1.082   1_565  S
C850        C851   1.385       .  A
C850       C1807   1.443       .  S
C851        H853   1.082       .  S
Cu854       N857   2.067       .  S
Cu855       N865   2.092       .  S
Cu856       N858   2.083       .  S
Cu856       N864   2.084   1_545  S
N857        N858   1.322       .  A
N857        C861   1.342       .  A
N858        C859   1.349       .  A
C859        C860   1.386       .  A
C859        H862   1.082       .  S
C860        C861   1.381       .  A
C860        C874   1.472       .  S
C861        H863   1.082       .  S
N864        N865   1.326       .  A
N864        C868   1.347       .  A
N865        C866   1.347       .  A
C866        C867   1.381       .  A
C866        H869   1.082       .  S
C867        C868   1.380       .  A
C867       C1805   1.443       .  S
C868        H870   1.082       .  S
N871        N872   1.324       .  A
N871        C875   1.342       .  A
N871       Cu879   2.071       .  S
N872        C873   1.349       .  A
N872       Cu878   2.088       .  S
C873        C874   1.385       .  A
C873        H876   1.082       .  S
C874        C875   1.380       .  A
C875        H877   1.082       .  S
Cu878       N881   2.087       .  S
Cu879       N889   2.070       .  S
Cu880       N882   2.057       .  S
Cu880       N888   2.056       .  S
N881        N882   1.323       .  A
N881        C885   1.350       .  A
N882        C883   1.339       .  A
C883        C884   1.377       .  A
C883        H886   1.082       .  S
C884        C885   1.386       .  A
C885        H887   1.082       .  S
N888        N889   1.320       .  A
N888        C892   1.344       .  A
N889        C890   1.345       .  A
C890        C891   1.381       .  A
C890        H893   1.082       .  S
C891        C892   1.378       .  A
C891       C1926   1.434       .  S
C892        H894   1.082       .  S
N895        N896   1.320       .  A
N895        C899   1.347       .  A
N895       Cu903   2.074       .  S
N896        C897   1.343       .  A
N896       Cu902   2.057       .  S
C897        C898   1.378       .  A
C897        H900   1.082       .  S
C898        C899   1.382       .  A
C898       C1803   1.436       .  S
C899        H901   1.082       .  S
Cu902       N905   2.057       .  S
Cu903       N913   2.075       .  S
Cu904       N906   2.087       .  S
Cu904       N912   2.088       .  S
N905        N906   1.322       .  A
N905        C909   1.338       .  A
N906        C907   1.350       .  A
C907        C908   1.387       .  A
C907        H910   1.082       .  S
C908        C909   1.378       .  A
C908        C956   1.469       .  S
C909        H911   1.082       .  S
N912        N913   1.326       .  A
N912        C916   1.348       .  A
N913        C914   1.344       .  A
C914        C915   1.376       .  A
C914        H917   1.082       .  S
C915        C916   1.382       .  A
C915       C1801   1.438       .  S
C916        H918   1.082       .  S
N919        N920   1.321   1_565  A
N919        C923   1.346       .  A
N919       Cu927   2.068       .  S
N920        C921   1.344       .  A
N920       Cu926   2.066       .  S
C921        C922   1.379   1_545  A
C921        H924   1.082       .  S
C922        C923   1.380       .  A
C922       C1800   1.435       .  S
C923        H925   1.082       .  S
Cu926       N929   2.067       .  S
Cu927       N937   2.069       .  S
Cu928       N930   2.083       .  S
Cu928       N936   2.083   1_545  S
N929        N930   1.322       .  A
N929        C933   1.342       .  A
N930        C931   1.349       .  A
C931        C932   1.386       .  A
C931        H934   1.082       .  S
C932        C933   1.380       .  A
C932        C963   1.471       .  S
C933        H935   1.082       .  S
N936        N937   1.325       .  A
N936        C940   1.347       .  A
N937        C938   1.344       .  A
C938        C939   1.377       .  A
C938        H941   1.082       .  S
C939        C940   1.380       .  A
C939       C1798   1.436       .  S
C940        H942   1.082       .  S
N943        N944   1.321       .  A
N943        C947   1.346       .  A
N943       Cu951   2.074       .  S
N944        C945   1.345       .  A
N944       Cu950   2.064       .  S
C945        C946   1.379       .  A
C945        H948   1.082       .  S
C946        C947   1.381       .  A
C946       C1962   1.437       .  S
C947        H949   1.082       .  S
Cu950       N953   2.065       .  S
Cu951       N961   2.075       .  S
Cu952       N954   2.081       .  S
Cu952       N960   2.082       .  S
N953        N954   1.323       .  A
N953        C957   1.340       .  A
N954        C955   1.349       .  A
C955        C956   1.385       .  A
C955        H958   1.082       .  S
C956        C957   1.380       .  A
C957        H959   1.082       .  S
N960        N961   1.324       .  A
N960        C964   1.348       .  A
N961        C962   1.342       .  A
C962        C963   1.381       .  A
C962        H965   1.082       .  S
C963        C964   1.384       .  A
C964        H966   1.082       .  S
N967        C972   1.353       .  A
N967        C971   1.352       .  A
N967        H999   1.039       .  S
N968        C975   1.349       .  A
N968        C976   1.350       .  A
N969        C974   1.352       .  A
N969        C973   1.356       .  A
N969       H1000   1.038       .  S
N970        C977   1.352       .  A
N970        C978   1.351       .  A
C971        C979   1.389       .  A
C971        C987   1.414       .  A
C972        C988   1.413       .  A
C972        C980   1.386       .  A
C973        C981   1.388       .  A
C973        C990   1.417       .  A
C974        C989   1.414       .  A
C974        C982   1.386       .  A
C975        C987   1.410       .  A
C975        C983   1.387       .  A
C976        C990   1.411       .  A
C976        C984   1.386       .  A
C977        C985   1.386       .  A
C977        C988   1.413       .  A
C978        C986   1.386       .  A
C978        C989   1.411       .  A
C979        C980   1.374       .  A
C979        H991   1.082       .  S
C980        H992   1.083       .  S
C981        C982   1.376       .  A
C981        H993   1.082       .  S
C982        H994   1.083       .  S
C983        C984   1.378       .  A
C983        H995   1.082       .  S
C984        H996   1.082       .  S
C985        C986   1.373       .  A
C985        H997   1.082       .  S
C986        H998   1.082       .  S
C987       C1799   1.448       .  S
C988       C1791   1.488       .  S
C989       C1778   1.481       .  S
C990       C1808   1.456       .  S
N1001      N1002   1.319       .  A
N1001      C1005   1.347       .  A
N1001     Cu1009   2.079       .  S
N1002      C1003   1.340       .  A
N1002     Cu1008   2.058       .  S
C1003      C1004   1.387       .  A
C1003      H1006   1.080       .  S
C1004      C1005   1.392       .  A
C1004      C1768   1.488       .  S
C1005      H1007   1.081       .  S
Cu1008     N1011   2.057       .  S
Cu1009     N1019   2.081       .  S
Cu1010     N1012   2.074       .  S
Cu1010     N1018   2.076       .  S
N1011      N1012   1.319       .  A
N1011      C1015   1.338       .  A
N1012      C1013   1.349       .  A
C1013      C1014   1.391       .  A
C1013      H1016   1.082       .  S
C1014      C1015   1.385       .  A
C1014      C1781   1.484       .  S
C1015      H1017   1.081       .  S
N1018      N1019   1.326       .  A
N1018      C1022   1.344       .  A
N1019      C1020   1.346       .  A
C1020      C1021   1.379       .  A
C1020      H1023   1.082       .  S
C1021      C1022   1.377       .  A
C1021      C1910   1.436       .  S
C1022      H1024   1.082       .  S
N1025      C1030   1.352       .  A
N1025      C1029   1.352       .  A
N1025      H1057   1.039       .  S
N1026      C1033   1.349       .  A
N1026      C1034   1.350       .  A
N1027      C1032   1.353       .  A
N1027      C1031   1.354       .  A
N1027      H1058   1.040       .  S
N1028      C1035   1.352       .  A
N1028      C1036   1.351       .  A
C1029      C1037   1.389       .  A
C1029      C1045   1.413       .  A
C1030      C1046   1.412       .  A
C1030      C1038   1.386       .  A
C1031      C1039   1.387       .  A
C1031      C1048   1.414       .  A
C1032      C1047   1.415       .  A
C1032      C1040   1.387       .  A
C1033      C1045   1.409       .  A
C1033      C1041   1.387       .  A
C1034      C1048   1.410       .  A
C1034      C1042   1.386       .  A
C1035      C1043   1.386       .  A
C1035      C1046   1.412       .  A
C1036      C1044   1.386       .  A
C1036      C1047   1.412       .  A
C1037      C1038   1.376       .  A
C1037      H1049   1.082       .  S
C1038      H1050   1.083       .  S
C1039      C1040   1.375       .  A
C1039      H1051   1.082       .  S
C1040      H1052   1.082       .  S
C1041      C1042   1.376       .  A
C1041      H1053   1.082       .  S
C1042      H1054   1.082       .  S
C1043      C1044   1.374       .  A
C1043      H1055   1.082       .  S
C1044      H1056   1.082       .  S
C1045      C1745   1.446       .  S
C1046      C1748   1.487       .  S
C1047      C1758   1.488       .  S
C1048      C1812   1.452       .  S
N1059      N1060   1.318       .  A
N1059      C1063   1.349       .  A
N1059     Cu1067   2.083       .  S
N1060      C1061   1.339       .  A
N1060     Cu1066   2.050       .  S
C1061      C1062   1.384       .  A
C1061      H1064   1.081       .  S
C1062      C1063   1.393       .  A
C1062      C1751   1.486       .  S
C1063      H1065   1.081       .  S
Cu1066     N1069   2.050       .  S
Cu1067     N1077   2.086       .  S
Cu1068     N1070   2.078       .  S
Cu1068     N1076   2.081       .  S
N1069      N1070   1.319       .  A
N1069      C1073   1.337       .  A
N1070      C1071   1.350       .  A
C1071      C1072   1.392       .  A
C1071      H1074   1.082       .  S
C1072      C1073   1.383       .  A
C1072      C1788   1.483       .  S
C1073      H1075   1.081       .  S
N1076      N1077   1.327       .  A
N1076      C1080   1.345       .  A
N1077      C1078   1.346       .  A
C1078      C1079   1.379       .  A
C1078      H1081   1.082       .  S
C1079      C1080   1.377       .  A
C1079      C1985   1.436       .  S
C1080      H1082   1.082       .  S
N1083      C1088   1.352       .  A
N1083      C1087   1.352       .  A
N1083      H1115   1.041       .  S
N1084      C1091   1.349       .  A
N1084      C1092   1.351       .  A
N1085      C1090   1.351       .  A
N1085      C1089   1.352       .  A
N1085      H1116   1.039       .  S
N1086      C1093   1.351       .  A
N1086      C1094   1.350       .  A
C1087      C1095   1.387       .  A
C1087      C1103   1.411       .  A
C1088      C1104   1.413       .  A
C1088      C1096   1.387       .  A
C1089      C1097   1.387       .  A
C1089      C1106   1.411       .  A
C1090      C1105   1.412       .  A
C1090      C1098   1.388       .  A
C1091      C1103   1.409       .  A
C1091      C1099   1.386       .  A
C1092      C1106   1.410       .  A
C1092      C1100   1.387       .  A
C1093      C1101   1.385       .  A
C1093      C1104   1.410       .  A
C1094      C1102   1.388       .  A
C1094      C1105   1.412       .  A
C1095      C1096   1.375       .  A
C1095      H1107   1.082       .  S
C1096      H1108   1.082       .  S
C1097      C1098   1.378       .  A
C1097      H1109   1.082       .  S
C1098      H1110   1.082       .  S
C1099      C1100   1.372       .  A
C1099      H1111   1.082       .  S
C1100      H1112   1.082       .  S
C1101      C1102   1.373       .  A
C1101      H1113   1.082       .  S
C1102      H1114   1.082       .  S
C1103      C1736   1.479       .  S
C1104      C1771   1.484       .  S
C1105      C1733   1.448       .  S
C1106      C1804   1.449       .  S
N1117      N1118   1.318       .  A
N1117      C1121   1.348       .  A
N1117     Cu1125   2.077       .  S
N1118      C1119   1.337       .  A
N1118     Cu1124   2.046       .  S
C1119      C1120   1.383       .  A
C1119      H1122   1.081       .  S
C1120      C1121   1.392       .  A
C1120      C1739   1.482       .  S
C1121      H1123   1.081       .  S
Cu1124     N1127   2.046       .  S
Cu1125     N1135   2.081       .  S
Cu1126     N1128   2.087       .  S
Cu1126     N1134   2.090       .  S
N1127      N1128   1.318       .  A
N1127      C1131   1.337       .  A
N1128      C1129   1.351       .  A
C1129      C1130   1.395       .  A
C1129      H1132   1.081       .  S
C1130      C1131   1.384       .  A
C1130      C1761   1.488       .  S
C1131      H1133   1.080       .  S
N1134      N1135   1.327       .  A
N1134      C1138   1.346       .  A
N1135      C1136   1.346       .  A
C1136      C1137   1.378       .  A
C1136      H1139   1.082       .  S
C1137      C1138   1.378       .  A
C1137      C1996   1.438       .  S
C1138      H1140   1.082       .  S
N1141      N1142   1.321       .  A
N1141      C1145   1.348       .  A
N1141     Cu1149   2.079       .  S
N1142      C1143   1.342       .  A
N1142     Cu1148   2.054       .  S
C1143      C1144   1.376       .  A
C1143      H1146   1.082       .  S
C1144      C1145   1.383       .  A
C1144      C1734   1.435       .  S
C1145      H1147   1.082       .  S
Cu1148     N1151   2.054       .  S
Cu1149     N1159   2.081       .  S
Cu1150     N1152   2.086       .  S
Cu1150     N1158   2.087       .  S
N1151      N1152   1.321       .  A
N1151      C1155   1.339       .  A
N1152      C1153   1.351       .  A
C1153      C1154   1.388       .  A
C1153      H1156   1.082       .  S
C1154      C1155   1.378       .  A
C1154      C1209   1.471       .  S
C1155      H1157   1.082       .  S
N1158      N1159   1.326       .  A
N1158      C1162   1.348       .  A
N1159      C1160   1.345       .  A
C1160      C1161   1.378       .  A
C1160      H1163   1.082       .  S
C1161      C1162   1.380       .  A
C1161      C1732   1.439       .  S
C1162      H1164   1.082       .  S
N1165      N1166   1.325       .  A
N1165      C1169   1.342       .  A
N1165     Cu1173   2.064       .  S
N1166      C1167   1.346       .  A
N1166     Cu1172   2.082       .  S
C1167      C1168   1.379       .  A
C1167      H1170   1.082       .  S
C1168      C1169   1.374       .  A
C1168      C1729   1.431       .  S
C1169      H1171   1.082       .  S
Cu1172     N1175   2.081       .  S
Cu1173     N1183   2.064       .  S
Cu1174     N1176   2.061       .  S
Cu1174     N1182   2.061       .  S
N1175      N1176   1.321       .  A
N1175      C1179   1.350   1_455  A
N1176      C1177   1.340   1_455  A
C1177      C1178   1.379       .  A
C1177      H1180   1.082       .  S
C1178      C1179   1.387       .  A
C1178      C1202   1.470       .  S
C1179      H1181   1.082       .  S
N1182      N1183   1.320       .  A
N1182      C1186   1.343       .  A
N1183      C1184   1.345       .  A
C1184      C1185   1.380       .  A
C1184      H1187   1.082       .  S
C1185      C1186   1.378       .  A
C1185      C1746   1.433       .  S
C1186      H1188   1.082       .  S
N1189      N1190   1.321       .  A
N1189      C1193   1.346       .  A
N1189     Cu1197   2.073       .  S
N1190      C1191   1.346       .  A
N1190     Cu1196   2.070       .  S
C1191      C1192   1.381       .  A
C1191      H1194   1.082       .  S
C1192      C1193   1.381       .  A
C1192      C1937   1.440       .  S
C1193      H1195   1.082       .  S
Cu1196     N1199   2.071       .  S
Cu1197     N1207   2.074       .  S
Cu1198     N1200   2.082       .  S
Cu1198     N1206   2.082       .  S
N1199      N1200   1.323       .  A
N1199      C1203   1.341       .  A
N1200      C1201   1.349       .  A
C1201      C1202   1.385       .  A
C1201      H1204   1.082       .  S
C1202      C1203   1.380       .  A
C1203      H1205   1.082       .  S
N1206      N1207   1.324       .  A
N1206      C1210   1.349       .  A
N1207      C1208   1.341       .  A
C1208      C1209   1.381       .  A
C1208      H1211   1.082       .  S
C1209      C1210   1.384       .  A
C1210      H1212   1.082       .  S
O1213     Cu1221   2.008       .  S
O1213      C1223   1.276       .  A
O1214     Cu1221   2.009       .  S
O1214      C1224   1.276       .  A
O1215     Cu1221   2.005       .  S
O1215      C1225   1.276       .  A
O1216     Cu1221   2.007       .  S
O1216      C1226   1.276       .  A
O1217     Cu1222   2.014       .  S
O1217      C1226   1.277       .  A
O1218     Cu1222   2.011       .  S
O1218      C1225   1.277       .  A
O1219     Cu1222   2.015       .  S
O1219      C1224   1.277       .  A
O1220     Cu1222   2.014       .  S
O1220      C1223   1.277       .  A
Cu1221    Cu1222   2.380       .  S
C1223      C1809   1.436       .  S
C1224      C1727   1.437       .  S
C1225      C1725   1.433       .  S
C1226      C1802   1.436       .  S
O1227     Cu1235   2.022       .  S
O1227      C1237   1.278       .  A
O1228     Cu1235   2.026       .  S
O1228      C1238   1.278       .  A
O1229     Cu1235   2.018       .  S
O1229      C1239   1.278       .  A
O1230     Cu1235   2.019       .  S
O1230      C1240   1.277       .  A
O1231     Cu1236   2.005       .  S
O1231      C1240   1.276       .  A
O1232     Cu1236   2.008       .  S
O1232      C1239   1.276       .  A
O1233     Cu1236   2.015       .  S
O1233      C1238   1.277       .  A
O1234     Cu1236   2.013       .  S
O1234      C1237   1.277       .  A
Cu1235    Cu1236   2.378       .  S
C1237      C1806   1.441       .  S
C1238      C1722   1.443       .  S
C1239      C1724   1.438       .  S
C1240      C1731   1.437       .  S
N1241      N1242   1.322       .  A
N1241      C1245   1.348       .  A
N1241     Cu1249   2.079       .  S
N1242      C1243   1.342       .  A
N1242     Cu1248   2.061       .  S
C1243      C1244   1.376       .  A
C1243      H1246   1.082       .  S
C1244      C1245   1.383       .  A
C1244      C1720   1.436       .  S
C1245      H1247   1.082       .  S
Cu1248     N1251   2.061       .  S
Cu1249     N1259   2.080       .  S
Cu1250     N1252   2.075       .  S
Cu1250     N1258   2.076       .  S
N1251      N1252   1.321       .  A
N1251      C1255   1.341   1_455  A
N1252      C1253   1.349   1_455  A
C1253      C1254   1.386       .  A
C1253      H1256   1.082       .  S
C1254      C1255   1.380       .  A
C1254      C1302   1.470       .  S
C1255      H1257   1.082       .  S
N1258      N1259   1.326       .  A
N1258      C1262   1.345       .  A
N1259      C1260   1.346       .  A
C1260      C1261   1.379       .  A
C1260      H1263   1.082       .  S
C1261      C1262   1.377       .  A
C1261      C1726   1.435       .  S
C1262      H1264   1.082       .  S
N1265      N1266   1.322   1_565  A
N1265      C1269   1.348       .  A
N1265     Cu1273   2.083       .  S
N1266      C1267   1.343       .  A
N1266     Cu1272   2.062       .  S
C1267      C1268   1.377   1_545  A
C1267      H1270   1.082       .  S
C1268      C1269   1.383       .  A
C1268      C1718   1.437       .  S
C1269      H1271   1.082       .  S
Cu1272     N1275   2.063       .  S
Cu1273     N1283   2.084       .  S
Cu1274     N1276   2.075       .  S
Cu1274     N1282   2.076   1_545  S
N1275      N1276   1.321       .  A
N1275      C1279   1.342       .  A
N1276      C1277   1.347       .  A
C1277      C1278   1.384       .  A
C1277      H1280   1.082       .  S
C1278      C1279   1.381       .  A
C1278      C1292   1.468       .  S
C1279      H1281   1.082       .  S
N1282      N1283   1.325       .  A
N1282      C1286   1.346       .  A
N1283      C1284   1.347       .  A
C1284      C1285   1.381       .  A
C1284      H1287   1.082       .  S
C1285      C1286   1.379       .  A
C1285      C1723   1.439       .  S
C1286      H1288   1.082       .  S
N1289      N1290   1.323       .  A
N1289      C1293   1.341       .  A
N1289     Cu1297   2.063       .  S
N1290      C1291   1.348       .  A
N1290     Cu1296   2.080       .  S
C1291      C1292   1.384       .  A
C1291      H1294   1.082       .  S
C1292      C1293   1.379       .  A
C1293      H1295   1.082       .  S
Cu1296     N1299   2.079       .  S
Cu1297     N1307   2.062       .  S
Cu1298     N1300   2.074       .  S
Cu1298     N1306   2.073       .  S
N1299      N1300   1.324       .  A
N1299      C1303   1.348       .  A
N1300      C1301   1.342       .  A
C1301      C1302   1.381       .  A
C1301      H1304   1.082       .  S
C1302      C1303   1.383       .  A
C1303      H1305   1.082       .  S
N1306      N1307   1.321       .  A
N1306      C1310   1.346       .  A
N1307      C1308   1.344       .  A
C1308      C1309   1.378       .  A
C1308      H1311   1.082       .  S
C1309      C1310   1.381       .  A
C1309      C1866   1.436       .  S
C1310      H1312   1.082       .  S
N1313      N1314   1.321       .  A
N1313      C1317   1.350       .  A
N1313     Cu1321   2.086       .  S
N1314      C1315   1.343       .  A
N1314     Cu1320   2.062       .  S
C1315      C1316   1.377       .  A
C1315      H1318   1.082       .  S
C1316      C1317   1.386       .  A
C1316      C1715   1.441       .  S
C1317      H1319   1.082       .  S
Cu1320     N1323   2.062       .  S
Cu1321     N1331   2.086       .  S
Cu1322     N1324   2.082       .  S
Cu1322     N1330   2.084       .  S
N1323      N1324   1.321       .  A
N1323      C1327   1.340       .  A
N1324      C1325   1.350       .  A
C1325      C1326   1.387       .  A
C1325      H1328   1.082       .  S
C1326      C1327   1.380       .  A
C1326      C1374   1.471       .  S
C1327      H1329   1.082       .  S
N1330      N1331   1.326       .  A
N1330      C1334   1.347       .  A
N1331      C1332   1.346       .  A
C1332      C1333   1.379       .  A
C1332      H1335   1.082       .  S
C1333      C1334   1.380       .  A
C1333      C1728   1.439       .  S
C1334      H1336   1.082       .  S
N1337      N1338   1.321   1_565  A
N1337      C1341   1.348       .  A
N1337     Cu1345   2.073       .  S
N1338      C1339   1.343       .  A
N1338     Cu1344   2.062       .  S
C1339      C1340   1.377   1_545  A
C1339      H1342   1.082       .  S
C1340      C1341   1.383       .  A
C1340      C1714   1.437       .  S
C1341      H1343   1.082       .  S
Cu1344     N1347   2.062       .  S
Cu1345     N1355   2.073       .  S
Cu1346     N1348   2.072       .  S
Cu1346     N1354   2.073   1_545  S
N1347      N1348   1.321       .  A
N1347      C1351   1.340       .  A
N1348      C1349   1.349       .  A
C1349      C1350   1.385       .  A
C1349      H1352   1.082       .  S
C1350      C1351   1.379       .  A
C1350      C1381   1.467       .  S
C1351      H1353   1.082       .  S
N1354      N1355   1.326       .  A
N1354      C1358   1.344       .  A
N1355      C1356   1.343       .  A
C1356      C1357   1.375       .  A
C1356      H1359   1.082       .  S
C1357      C1358   1.377       .  A
C1357      C1711   1.430       .  S
C1358      H1360   1.082       .  S
N1361      N1362   1.321       .  A
N1361      C1365   1.344       .  A
N1361     Cu1369   2.062       .  S
N1362      C1363   1.344       .  A
N1362     Cu1368   2.066       .  S
C1363      C1364   1.379       .  A
C1363      H1366   1.082       .  S
C1364      C1365   1.379       .  A
C1364      C1815   1.434       .  S
C1365      H1367   1.082       .  S
Cu1368     N1371   2.067       .  S
Cu1369     N1379   2.063       .  S
Cu1370     N1372   2.085       .  S
Cu1370     N1378   2.084       .  S
N1371      N1372   1.323       .  A
N1371      C1375   1.341       .  A
N1372      C1373   1.349       .  A
C1373      C1374   1.385       .  A
C1373      H1376   1.082       .  S
C1374      C1375   1.380       .  A
C1375      H1377   1.082       .  S
N1378      N1379   1.323       .  A
N1378      C1382   1.349       .  A
N1379      C1380   1.340       .  A
C1380      C1381   1.378       .  A
C1380      H1383   1.082       .  S
C1381      C1382   1.384       .  A
C1382      H1384   1.082       .  S
N1385      N1386   1.319       .  A
N1385      C1389   1.350       .  A
N1385     Cu1393   2.075   1_554  S
N1386      C1387   1.337       .  A
N1386     Cu1392   2.048       .  S
C1387      C1388   1.381       .  A
C1387      H1390   1.082       .  S
C1388      C1389   1.389       .  A
C1388      C1702   1.476       .  S
C1389      H1391   1.082       .  S
Cu1392     N1395   2.048       .  S
Cu1393     N1403   2.078       .  S
Cu1394     N1396   2.081   1_556  S
Cu1394     N1402   2.084       .  S
N1395      N1396   1.319       .  A
N1395      C1399   1.337       .  A
N1396      C1397   1.351       .  A
C1397      C1398   1.391       .  A
C1397      H1400   1.082       .  S
C1398      C1399   1.381       .  A
C1398      C1695   1.480       .  S
C1399      H1401   1.082       .  S
N1402      N1403   1.327       .  A
N1402      C1406   1.345       .  A
N1403      C1404   1.344       .  A
C1404      C1405   1.376       .  A
C1404      H1407   1.082       .  S
C1405      C1406   1.378       .  A
C1405      C1814   1.433       .  S
C1406      H1408   1.082       .  S
N1409      C1414   1.354       .  A
N1409      C1413   1.354       .  A
N1409      H1441   1.039       .  S
N1410      C1417   1.352       .  A
N1410      C1418   1.352       .  A
N1411      C1416   1.354       .  A
N1411      C1415   1.353       .  A
N1411      H1442   1.039       .  S
N1412      C1419   1.350       .  A
N1412      C1420   1.350       .  A
C1413      C1421   1.387       .  A
C1413      C1429   1.413       .  A
C1414      C1430   1.415       .  A
C1414      C1422   1.388       .  A
C1415      C1423   1.387       .  A
C1415      C1432   1.413       .  A
C1416      C1431   1.417       .  A
C1416      C1424   1.388       .  A
C1417      C1429   1.411       .  A
C1417      C1425   1.386       .  A
C1418      C1432   1.411       .  A
C1418      C1426   1.387       .  A
C1419      C1427   1.386       .  A
C1419      C1430   1.411       .  A
C1420      C1428   1.386       .  A
C1420      C1431   1.412       .  A
C1421      C1422   1.373       .  A
C1421      H1433   1.082       .  S
C1422      H1434   1.082       .  S
C1423      C1424   1.374       .  A
C1423      H1435   1.082       .  S
C1424      H1436   1.082       .  S
C1425      C1426   1.374       .  A
C1425      H1437   1.082       .  S
C1426      H1438   1.082       .  S
C1427      C1428   1.371       .  A
C1427      H1439   1.083       .  S
C1428      H1440   1.082       .  S
C1429      C1679   1.452       .  S
C1430      C1705   1.479       .  S
C1431      C1682   1.484       .  S
C1432      C1719   1.450       .  S
N1443      N1444   1.321       .  A
N1443      C1447   1.352       .  A
N1443     Cu1451   2.092       .  S
N1444      C1445   1.339       .  A
N1444     Cu1450   2.059       .  S
C1445      C1446   1.382       .  A
C1445      H1448   1.081       .  S
C1446      C1447   1.392       .  A
C1446      C1670   1.484       .  S
C1447      H1449   1.082       .  S
Cu1450     N1453   2.060       .  S
Cu1451     N1461   2.093   1_554  S
Cu1452     N1454   2.079       .  S
Cu1452     N1460   2.081   1_554  S
N1453      N1454   1.319       .  A
N1453      C1457   1.342       .  A
N1454      C1455   1.346       .  A
C1455      C1456   1.391       .  A
C1455      H1458   1.081       .  S
C1456      C1457   1.387       .  A
C1456      C1660   1.488       .  S
C1457      H1459   1.081       .  S
N1460      N1461   1.326       .  A
N1460      C1464   1.347       .  A
N1461      C1462   1.347       .  A
C1462      C1463   1.381       .  A
C1462      H1465   1.082       .  S
C1463      C1464   1.379       .  A
C1463      C1851   1.442       .  S
C1464      H1466   1.082       .  S
N1467      C1472   1.353       .  A
N1467      C1471   1.352       .  A
N1467      H1499   1.037       .  S
N1468      C1475   1.352       .  A
N1468      C1476   1.352       .  A
N1469      C1474   1.354       .  A
N1469      C1473   1.353       .  A
N1469      H1500   1.038       .  S
N1470      C1477   1.351       .  A
N1470      C1478   1.350       .  A
C1471      C1479   1.387       .  A
C1471      C1487   1.415       .  A
C1472      C1488   1.414       .  A
C1472      C1480   1.388       .  A
C1473      C1481   1.386       .  A
C1473      C1490   1.415       .  A
C1474      C1489   1.415       .  A
C1474      C1482   1.388       .  A
C1475      C1487   1.415       .  A
C1475      C1483   1.387       .  A
C1476      C1490   1.413       .  A
C1476      C1484   1.386       .  A
C1477      C1485   1.386       .  A
C1477      C1488   1.411       .  A
C1478      C1486   1.387       .  A
C1478      C1489   1.411       .  A
C1479      C1480   1.375       .  A
C1479      H1491   1.082       .  S
C1480      H1492   1.082       .  S
C1481      C1482   1.374       .  A
C1481      H1493   1.082       .  S
C1482      H1494   1.082       .  S
C1483      C1484   1.373       .  A
C1483      H1495   1.082       .  S
C1484      H1496   1.082       .  S
C1485      C1486   1.374       .  A
C1485      H1497   1.082       .  S
C1486      H1498   1.082       .  S
C1487      C1692   1.483       .  S
C1488      C1713   1.450       .  S
C1489      C1717   1.450       .  S
C1490      C1663   1.487       .  S
N1501      C1506   1.352       .  A
N1501      C1505   1.350       .  A
N1501      H1533   1.039       .  S
N1502      C1509   1.353       .  A
N1502      C1510   1.353       .  A
N1503      C1508   1.354       .  A
N1503      C1507   1.354       .  A
N1503      H1534   1.041       .  S
N1504      C1511   1.354       .  A
N1504      C1512   1.352       .  A
C1505      C1513   1.387       .  A
C1505      C1521   1.415       .  A
C1506      C1522   1.417       .  A
C1506      C1514   1.389       .  A
C1507      C1515   1.387       .  A
C1507      C1524   1.418       .  A
C1508      C1523   1.419       .  A
C1508      C1516   1.388       .  A
C1509      C1521   1.416       .  A
C1509      C1517   1.386       .  A
C1510      C1524   1.416       .  A
C1510      C1518   1.388       .  A
C1511      C1519   1.386       .  A
C1511      C1522   1.418       .  A
C1512      C1520   1.388       .  A
C1512      C1523   1.416       .  A
C1513      C1514   1.374       .  A
C1513      H1525   1.082       .  S
C1514      H1526   1.081       .  S
C1515      C1516   1.379       .  A
C1515      H1527   1.082       .  S
C1516      H1528   1.082       .  S
C1517      C1518   1.371       .  A
C1517      H1529   1.082       .  S
C1518      H1530   1.082       .  S
C1519      C1520   1.372       .  A
C1519      H1531   1.082       .  S
C1520      H1532   1.082       .  S
C1521      C1653   1.482       .  S
C1522      C1673   1.487       .  S
C1523      C1647   1.456       .  S
C1524      C1716   1.455       .  S
N1535      N1536   1.320       .  A
N1535      C1539   1.349       .  A
N1535     Cu1543   2.084   1_554  S
N1536      C1537   1.339       .  A
N1536     Cu1542   2.055       .  S
C1537      C1538   1.384       .  A
C1537      H1540   1.081       .  S
C1538      C1539   1.391       .  A
C1538      C1650   1.483       .  S
C1539      H1541   1.081       .  S
Cu1542     N1545   2.055       .  S
Cu1543     N1553   2.086       .  S
Cu1544     N1546   2.075   1_556  S
Cu1544     N1552   2.077       .  S
N1545      N1546   1.320       .  A
N1545      C1549   1.339       .  A
N1546      C1547   1.348       .  A
C1547      C1548   1.388       .  A
C1547      H1550   1.082       .  S
C1548      C1549   1.382       .  A
C1548      C1685   1.476       .  S
C1549      H1551   1.082       .  S
N1552      N1553   1.326       .  A
N1552      C1556   1.345       .  A
N1553      C1554   1.347       .  A
C1554      C1555   1.381       .  A
C1554      H1557   1.082       .  S
C1555      C1556   1.377       .  A
C1555      C1891   1.438       .  S
C1556      H1558   1.082       .  S
N1559      N1560   1.321       .  A
N1559      C1563   1.350       .  A
N1559     Cu1567   2.091       .  S
N1560      C1561   1.345       .  A
N1560     Cu1566   2.065       .  S
C1561      C1562   1.379       .  A
C1561      H1564   1.082       .  S
C1562      C1563   1.386       .  A
C1562      C1648   1.443       .  S
C1563      H1565   1.082       .  S
Cu1566     N1569   2.065       .  S
Cu1567     N1577   2.092       .  S
Cu1568     N1570   2.085       .  S
Cu1568     N1576   2.088       .  S
N1569      N1570   1.323       .  A
N1569      C1573   1.340       .  A
N1570      C1571   1.350       .  A
C1571      C1572   1.386       .  A
C1571      H1574   1.082       .  S
C1572      C1573   1.379       .  A
C1572      C1620   1.470       .  S
C1573      H1575   1.082       .  S
N1576      N1577   1.326       .  A
N1576      C1580   1.349       .  A
N1577      C1578   1.347       .  A
C1578      C1579   1.380       .  A
C1578      H1581   1.082       .  S
C1579      C1580   1.382       .  A
C1579      C1721   1.445       .  S
C1580      H1582   1.082       .  S
N1583      N1584   1.326       .  A
N1583      C1587   1.347       .  A
N1583     Cu1591   2.090       .  S
N1584      C1585   1.345       .  A
N1584     Cu1590   2.077       .  S
C1585      C1586   1.377       .  A
C1585      H1588   1.082       .  S
C1586      C1587   1.381       .  A
C1586      C1645   1.438       .  S
C1587      H1589   1.082       .  S
Cu1590     N1593   2.076       .  S
Cu1591     N1601   2.088       .  S
Cu1592     N1594   2.058       .  S
Cu1592     N1600   2.058       .  S
N1593      N1594   1.321       .  A
N1593      C1597   1.350   1_455  A
N1594      C1595   1.339   1_455  A
C1595      C1596   1.380       .  A
C1595      H1598   1.082       .  S
C1596      C1597   1.386       .  A
C1596      C1627   1.470       .  S
C1597      H1599   1.082       .  S
N1600      N1601   1.322       .  A
N1600      C1604   1.343       .  A
N1601      C1602   1.349       .  A
C1602      C1603   1.385       .  A
C1602      H1605   1.082       .  S
C1603      C1604   1.376       .  A
C1603      C1680   1.439       .  S
C1604      H1606   1.082       .  S
N1607      N1608   1.320       .  A
N1607      C1611   1.343       .  A
N1607     Cu1615   2.056       .  S
N1608      C1609   1.342       .  A
N1608     Cu1614   2.053       .  S
C1609      C1610   1.377       .  A
C1609      H1612   1.082       .  S
C1610      C1611   1.378       .  A
C1610      C1838   1.428       .  S
C1611      H1613   1.082       .  S
Cu1614     N1617   2.055       .  S
Cu1615     N1625   2.057       .  S
Cu1616     N1618   2.093       .  S
Cu1616     N1624   2.093       .  S
N1617      N1618   1.323       .  A
N1617      C1621   1.339       .  A
N1618      C1619   1.351       .  A
C1619      C1620   1.387       .  A
C1619      H1622   1.082       .  S
C1620      C1621   1.378       .  A
C1621      H1623   1.082       .  S
N1624      N1625   1.323       .  A
N1624      C1628   1.351       .  A
N1625      C1626   1.338       .  A
C1626      C1627   1.378       .  A
C1626      H1629   1.082       .  S
C1627      C1628   1.387       .  A
C1628      H1630   1.082       .  S
O1631     Cu1639   2.004       .  S
O1631      C1641   1.276       .  A
O1632     Cu1639   2.006       .  S
O1632      C1642   1.276       .  A
O1633     Cu1639   2.002       .  S
O1633      C1643   1.276       .  A
O1634     Cu1639   2.004       .  S
O1634      C1644   1.276       .  A
O1635     Cu1640   1.999       .  S
O1635      C1644   1.275       .  A
O1636     Cu1640   1.998       .  S
O1636      C1643   1.275       .  A
O1637     Cu1640   2.017       .  S
O1637      C1642   1.278       .  A
O1638     Cu1640   2.014       .  S
O1638      C1641   1.277       .  A
Cu1639    Cu1640   2.381       .  S
C1641      C1797   1.434       .  S
C1642      C1646   1.436       .  S
C1643      C1712   1.427       .  S
C1644      C1730   1.429       .  S
C1645      C1646   1.207       .  T
C1647      C1648   1.210       .  T
C1649      C1650   1.408       .  A
C1649      C1654   1.403       .  A
C1649      H1655   1.082       .  S
C1650      C1651   1.407       .  A
C1651      C1652   1.392       .  A
C1651      H1656   1.081       .  S
C1652      C1653   1.399       .  A
C1652      H1657   1.084       .  S
C1653      C1654   1.403       .  A
C1654      H1658   1.083       .  S
C1659      C1660   1.408       .  A
C1659      C1664   1.400       .  A
C1659      H1665   1.081       .  S
C1660      C1661   1.408       .  A
C1661      C1662   1.397       .  A
C1661      H1666   1.081       .  S
C1662      C1663   1.402       .  A
C1662      H1667   1.083       .  S
C1663      C1664   1.402       .  A
C1664      H1668   1.083       .  S
C1669      C1670   1.407       .  A
C1669      C1674   1.393       .  A
C1669      H1675   1.082       .  S
C1670      C1671   1.406       .  A
C1671      C1672   1.405       .  A
C1671      H1676   1.083       .  S
C1672      C1673   1.406       .  A
C1672      H1677   1.083       .  S
C1673      C1674   1.399       .  A
C1674      H1678   1.083       .  S
C1679      C1680   1.207       .  T
C1681      C1682   1.400       .  A
C1681      C1686   1.393       .  A
C1681      H1687   1.083       .  S
C1682      C1683   1.404       .  A
C1683      C1684   1.401       .  A
C1683      H1688   1.083       .  S
C1684      C1685   1.405       .  A
C1684      H1689   1.083       .  S
C1685      C1686   1.404       .  A
C1686      H1690   1.083       .  S
C1691      C1692   1.405       .  A
C1691      C1696   1.404       .  A
C1691      H1697   1.083       .  S
C1692      C1693   1.398       .  A
C1693      C1694   1.390       .  A
C1693      H1698   1.084       .  S
C1694      C1695   1.406       .  A
C1694      H1699   1.082       .  S
C1695      C1696   1.407       .  A
C1696      H1700   1.083       .  S
C1701      C1702   1.406       .  A
C1701      C1706   1.403       .  A
C1701      H1707   1.083       .  S
C1702      C1703   1.405       .  A
C1703      C1704   1.390       .  A
C1703      H1708   1.082       .  S
C1704      C1705   1.398       .  A
C1704      H1709   1.084       .  S
C1705      C1706   1.403       .  A
C1706      H1710   1.083       .  S
C1711      C1712   1.201       .  T
C1713      C1714   1.206       .  T
C1715      C1716   1.209       .  T
C1717      C1718   1.206       .  T
C1719      C1720   1.206       .  T
C1721      C1722   1.211       .  T
C1723      C1724   1.207       .  T
C1725      C1726   1.205       .  T
C1727      C1728   1.207       .  T
C1729      C1730   1.202       .  T
C1731      C1732   1.207       .  T
C1733      C1734   1.205       .  T
C1735      C1736   1.402       .  A
C1735      C1740   1.400       .  A
C1735      H1741   1.083       .  S
C1736      C1737   1.399       .  A
C1737      C1738   1.391       .  A
C1737      H1742   1.084       .  S
C1738      C1739   1.407       .  A
C1738      H1743   1.081       .  S
C1739      C1740   1.407       .  A
C1740      H1744   1.082       .  S
C1745      C1746   1.204       .  T
C1747      C1748   1.404       .  A
C1747      C1752   1.403       .  A
C1747      H1753   1.083       .  S
C1748      C1749   1.400       .  A
C1749      C1750   1.393       .  A
C1749      H1754   1.084       .  S
C1750      C1751   1.407       .  A
C1750      H1755   1.081       .  S
C1751      C1752   1.408       .  A
C1752      H1756   1.082       .  S
C1757      C1758   1.405       .  A
C1757      C1762   1.404       .  A
C1757      H1763   1.083       .  S
C1758      C1759   1.399       .  A
C1759      C1760   1.391       .  A
C1759      H1764   1.084       .  S
C1760      C1761   1.408       .  A
C1760      H1765   1.080       .  S
C1761      C1762   1.408       .  A
C1762      H1766   1.082       .  S
C1767      C1768   1.409       .  A
C1767      C1772   1.395       .  A
C1767      H1773   1.080       .  S
C1768      C1769   1.408       .  A
C1769      C1770   1.400       .  A
C1769      H1774   1.081       .  S
C1770      C1771   1.402       .  A
C1770      H1775   1.083       .  S
C1771      C1772   1.400       .  A
C1772      H1776   1.083       .  S
C1777      C1778   1.403       .  A
C1777      C1782   1.403       .  A
C1777      H1783   1.083       .  S
C1778      C1779   1.398       .  A
C1779      C1780   1.390       .  A
C1779      H1784   1.084       .  S
C1780      C1781   1.407       .  A
C1780      H1785   1.080       .  S
C1781      C1782   1.408       .  A
C1782      H1786   1.082       .  S
C1787      C1788   1.407       .  A
C1787      C1792   1.403       .  A
C1787      H1793   1.082       .  S
C1788      C1789   1.406       .  A
C1789      C1790   1.391       .  A
C1789      H1794   1.081       .  S
C1790      C1791   1.401       .  A
C1790      H1795   1.084       .  S
C1791      C1792   1.405       .  A
C1792      H1796   1.083       .  S
C1797      C1798   1.205       .  T
C1799      C1800   1.205       .  T
C1801      C1802   1.206       .  T
C1803      C1804   1.206       .  T
C1805      C1806   1.209       .  T
C1807      C1808   1.210       .  T
C1809      C1810   1.206       .  T
C1811      C1812   1.208       .  T
C1813      C1814   1.203       .  T
C1815      C1816   1.204       .  T
C1817      C1818   1.401       .  A
C1817      C1822   1.394       .  A
C1817      H1823   1.083       .  S
C1818      C1819   1.405       .  A
C1819      C1820   1.400       .  A
C1819      H1824   1.083       .  S
C1820      C1821   1.405       .  A
C1820      H1825   1.083       .  S
C1821      C1822   1.406       .  A
C1822      H1826   1.082       .  S
C1827      C1828   1.407       .  A
C1827      C1832   1.392       .  A
C1827      H1833   1.081       .  S
C1828      C1829   1.408       .  A
C1829      C1830   1.400       .  A
C1829      H1834   1.082       .  S
C1830      C1831   1.403       .  A
C1830      H1835   1.083       .  S
C1831      C1832   1.400       .  A
C1832      H1836   1.083       .  S
C1837      C1838   1.200       .  T
C1839      C1840   1.205       .  T
C1841      C1842   1.403       .  A
C1841      C1846   1.400       .  A
C1841      H1847   1.083       .  S
C1842      C1843   1.399       .  A
C1843      C1844   1.391       .  A
C1843      H1848   1.084       .  S
C1844      C1845   1.407       .  A
C1844      H1849   1.080       .  S
C1845      C1846   1.408       .  A
C1846      H1850   1.081       .  S
C1851      C1852   1.208       .  T
C1853      C1854   1.205       .  T
C1855      C1856   1.406       .  A
C1855      C1860   1.390       .  A
C1855      H1861   1.082       .  S
C1856      C1857   1.406       .  A
C1857      C1858   1.402       .  A
C1857      H1862   1.083       .  S
C1858      C1859   1.405       .  A
C1858      H1863   1.083       .  S
C1859      C1860   1.398       .  A
C1860      H1864   1.084       .  S
C1865      C1866   1.205       .  T
C1867      C1868   1.204       .  T
C1869      C1870   1.400       .  A
C1869      C1874   1.393       .  A
C1869      H1875   1.083       .  S
C1870      C1871   1.403       .  A
C1871      C1872   1.402       .  A
C1871      H1876   1.083       .  S
C1872      C1873   1.407       .  A
C1872      H1877   1.083       .  S
C1873      C1874   1.405       .  A
C1874      H1878   1.082       .  S
C1879      C1880   1.210       .  T
C1881      C1882   1.402       .  A
C1881      C1886   1.402       .  A
C1881      H1887   1.083       .  S
C1882      C1883   1.397       .  A
C1883      C1884   1.388       .  A
C1883      H1888   1.084       .  S
C1884      C1885   1.406       .  A
C1884      H1889   1.081       .  S
C1885      C1886   1.407       .  A
C1886      H1890   1.082       .  S
C1891      C1892   1.206       .  T
C1893      C1894   1.206       .  T
C1895      C1896   1.205       .  T
C1897      C1898   1.206       .  T
C1899      C1900   1.205       .  T
C1901      C1902   1.210       .  T
C1903      C1904   1.207       .  T
C1905      C1906   1.209       .  T
C1907      C1908   1.204       .  T
C1909      C1910   1.205       .  T
C1911      C1912   1.207       .  T
C1913      C1914   1.207       .  T
C1915      C1916   1.409       .  A
C1915      C1920   1.404       .  A
C1915      H1921   1.082       .  S
C1916      C1917   1.407       .  A
C1917      C1918   1.392       .  A
C1917      H1922   1.081       .  S
C1918      C1919   1.401       .  A
C1918      H1923   1.084       .  S
C1919      C1920   1.405       .  A
C1920      H1924   1.083       .  S
C1925      C1926   1.204       .  T
C1927      C1928   1.409       .  A
C1927      C1932   1.395       .  A
C1927      H1933   1.080       .  S
C1928      C1929   1.408       .  A
C1929      C1930   1.402       .  A
C1929      H1934   1.082       .  S
C1930      C1931   1.402       .  A
C1930      H1935   1.083       .  S
C1931      C1932   1.400       .  A
C1932      H1936   1.083       .  S
C1937      C1938   1.207       .  T
C1939      C1940   1.207       .  T
C1941      C1942   1.407       .  A
C1941      C1946   1.400       .  A
C1941      H1947   1.082       .  S
C1942      C1943   1.407       .  A
C1943      C1944   1.391       .  A
C1943      H1948   1.081       .  S
C1944      C1945   1.400       .  A
C1944      H1949   1.084       .  S
C1945      C1946   1.404       .  A
C1946      H1950   1.083       .  S
C1951      C1952   1.406       .  A
C1951      C1956   1.402       .  A
C1951      H1957   1.082       .  S
C1952      C1953   1.408       .  A
C1953      C1954   1.395       .  A
C1953      H1958   1.082       .  S
C1954      C1955   1.401       .  A
C1954      H1959   1.083       .  S
C1955      C1956   1.405       .  A
C1956      H1960   1.083       .  S
C1961      C1962   1.206       .  T
C1963      C1964   1.205       .  T
C1965      C1966   1.402       .  A
C1965      C1970   1.393       .  A
C1965      H1971   1.084       .  S
C1966      C1967   1.403       .  A
C1967      C1968   1.399       .  A
C1967      H1972   1.083       .  S
C1968      C1969   1.408       .  A
C1968      H1973   1.081       .  S
C1969      C1970   1.406       .  A
C1970      H1974   1.081       .  S
C1975      C1976   1.404       .  A
C1975      C1980   1.401       .  A
C1975      H1981   1.083       .  S
C1976      C1977   1.400       .  A
C1977      C1978   1.388       .  A
C1977      H1982   1.084       .  S
C1978      C1979   1.405       .  A
C1978      H1983   1.080       .  S
C1979      C1980   1.408       .  A
C1980      H1984   1.082       .  S
C1985      C1986   1.205       .  T
C1987      C1988   1.206       .  T
C1989      C1990   1.204       .  T
C1991      C1992   1.208       .  T
C1993      C1994   1.206       .  T
C1995      C1996   1.206       .  T
C1997      C1998   1.210       .  T
C1999      C2000   1.209       .  T
C2001      C2002   1.207       .  T
C2003      C2004   1.204       .  T
