geometry optimzed in LAMMPS
_audit_creation_date              2020-11-30 
_audit_creation_method            'lammps2cif' 
_symmetry_space_group_name_H-M    'P1' 
_symmetry_Int_Tables_number       1 
_symmetry_cell_setting            triclinic 
loop_ 
_symmetry_equiv_pos_as_xyz 
  x,y,z 
_cell_length_a                    37.1461415 
_cell_length_b                    37.0390068996299 
_cell_length_c                    37.059988334582805 
_cell_angle_alpha                 90.55166271208978 
_cell_angle_beta                  89.80357921649814 
_cell_angle_gamma                 89.44073927682707 
loop_ 
_atom_site_label 
_atom_site_type_symbol 
_atom_site_fract_x 
_atom_site_fract_y 
_atom_site_fract_z 
_atom_site_charge 
O1          O  0.53594860  0.53916835  0.00870705    -0.71600
O2          O  0.46143898  0.46865257  0.01343757    -0.71800
O3          O  0.53444389  0.46681998  0.01400854    -0.71700
O4          O  0.46369829  0.54099090  0.00907303    -0.71700
O5          O  0.46187302  0.53529561  0.95066522    -0.71600
O6          O  0.53635526  0.46323171  0.95545183    -0.71700
O7          O  0.46365072  0.46266603  0.95507239    -0.71600
O8          O  0.53451931  0.53573706  0.95013617    -0.71800
V9          V  0.49888504  0.50372423  0.01015819     1.35200
V10         V  0.49908967  0.49930702  0.95394403     1.35200
C11         C  0.54752021  0.54963023  0.97841798     0.77600
C12         C  0.44989779  0.45376554  0.98484894     0.77700
C13         C  0.54800303  0.45292241  0.98579305     0.77600
C14         C  0.45058690  0.55062993  0.97931920     0.77500
O15         O  0.46528673  0.02358366  0.44082034    -0.71600
O16         O  0.53429706  0.02331827  0.51646544    -0.71800
O17         O  0.53782555  0.02361865  0.44399723    -0.71700
O18         O  0.46177070  0.02293830  0.51346294    -0.71700
O19         O  0.46492202  0.96431843  0.51467007    -0.71600
O20         O  0.53641033  0.96499165  0.44099058    -0.71700
O21         O  0.53737319  0.96470373  0.51352637    -0.71600
O22         O  0.46390571  0.96493415  0.44208510    -0.71800
V23         V  0.49981269  0.02225496  0.47865990     1.35200
V24         V  0.50062176  0.96587181  0.47780855     1.35200
C25         C  0.45244300  0.99429968  0.42906721     0.77600
C26         C  0.54792807  0.99404126  0.52741594     0.77700
C27         C  0.54974641  0.99434097  0.43051325     0.77600
C28         C  0.45084993  0.99341159  0.52621785     0.77500
O29         O  0.03070242  0.53191452  0.44969783    -0.71600
O30         O  0.03055306  0.46030936  0.52324614    -0.71800
O31         O  0.03424271  0.45928365  0.45013525    -0.71700
O32         O  0.02753546  0.53290024  0.52215198    -0.71700
O33         O  0.96953776  0.53541114  0.51459635    -0.71600
O34         O  0.97621136  0.45266430  0.45282726    -0.71700
O35         O  0.97211249  0.46358254  0.52496192    -0.71600
O36         O  0.97315528  0.52431148  0.44284543    -0.71800
V37         V  0.02977093  0.49599923  0.48628953     1.35200
V38         V  0.97379987  0.49397687  0.48388562     1.35200
C39         C  0.00187217  0.53946473  0.43316743     0.77600
C40         C  0.00110448  0.45084838  0.53750136     0.77700
C41         C  0.00631826  0.44307710  0.43963405     0.77600
C42         C  0.99754149  0.54755891  0.52955368     0.77500
C43         C  0.35856600  0.41416648  0.98708073     0.80400
N44         N  0.38586664  0.43836886  0.98951645    -0.77900
C45         C  0.42076093  0.42710993  0.98556382     0.82900
N46         N  0.42826136  0.39161154  0.97854512    -0.77800
C47         C  0.40113535  0.36724166  0.97622314     0.82900
N48         N  0.36667896  0.37893121  0.98047755    -0.79600
C49         C  0.36182900  0.59630735  0.98239875     0.80400
N50         N  0.37166298  0.63107171  0.98732680    -0.77900
C51         C  0.40685417  0.64039047  0.98830790     0.82900
N52         N  0.43252075  0.61414694  0.98433808    -0.77800
C53         C  0.42291133  0.57910411  0.97893953     0.82900
N54         N  0.38746229  0.57014079  0.97835287    -0.79600
C55         C  0.36125110  0.99329269  0.57062217     0.80400
N56         N  0.38734664  0.99568333  0.54485822    -0.77900
C57         C  0.42273186  0.99263277  0.55411596     0.82900
N58         N  0.43200506  0.98713350  0.58916968    -0.77800
C59         C  0.40601648  0.98469871  0.61492847     0.82900
N60         N  0.37100291  0.98771909  0.60534039    -0.79600
N61         N  0.43401554  0.95972256  0.94214748    -0.36400
N62         N  0.43028027  0.03833602  0.93427043    -0.57000
N63         N  0.42601072  0.04600455  0.01301472    -0.36400
N64         N  0.43448538  0.96750948  0.02085861    -0.57000
C65         C  0.43816629  0.96212223  0.90594398     0.27200
C66         C  0.44109637  0.92514319  0.95154018     0.27200
C67         C  0.42832180  0.08121808  0.00382874     0.27200
C68         C  0.42978138  0.04388320  0.04928657     0.27200
C69         C  0.42709448  0.02876556  0.89908194     0.35800
C70         C  0.42431418  0.07441259  0.93638449     0.35800
C71         C  0.43290259  0.93106430  0.01854736     0.35800
C72         C  0.42810770  0.97651025  0.05578233     0.35800
C73         C  0.44767294  0.92833764  0.89216785    -0.21700
C74         C  0.44989018  0.90527482  0.92082199    -0.21700
C75         C  0.43301977  0.10174041  0.03496515    -0.21700
C76         C  0.43410771  0.07831713  0.06346490    -0.21700
C77         C  0.41994965  0.05918172  0.87866090    -0.22800
C78         C  0.41787061  0.08788819  0.90220797    -0.22800
C79         C  0.42604499  0.91687086  0.05232765    -0.22800
C80         C  0.42332591  0.94551207  0.07586668    -0.22800
C81         C  0.43156419  0.99326234  0.88471731    -0.18100
C82         C  0.43751075  0.91020048  0.98653068    -0.18100
C83         C  0.42751914  0.01210694  0.07027212    -0.18100
C84         C  0.42491316  0.09568517  0.96847739    -0.18100
H85         H  0.45198330  0.92046970  0.86433098     0.14800
H86         H  0.45624813  0.87676192  0.91893189     0.14800
H87         H  0.43443276  0.13078661  0.03727226     0.14800
H88         H  0.43703261  0.08602942  0.09152317     0.14800
H89         H  0.41662868  0.06075428  0.84973287     0.13100
H90         H  0.41205116  0.11551865  0.89482601     0.13100
H91         H  0.42296373  0.88881412  0.05943972     0.13100
H92         H  0.41820101  0.94354357  0.10452734     0.13100
H93         H  0.42465760  0.97997160  0.95912286     0.26300
H94         H  0.42036897  0.02479293  0.99578238     0.26300
C95         C  0.40689418  0.99458925  0.34032673     0.80400
N96         N  0.37217782  0.98982479  0.35059935    -0.77900
C97         C  0.36314204  0.98801318  0.38599694     0.82900
N98         N  0.38929389  0.99013475  0.41145827    -0.77800
C99         C  0.42427347  0.99424557  0.40145836     0.82900
N100        N  0.43302890  0.99704548  0.36587251    -0.79600
C101        C  0.59369746  0.36478905  0.99863129     0.80400
N102        N  0.56783468  0.38996975  0.99148237    -0.77900
C103        C  0.57663867  0.42546025  0.98889770     0.82900
N104        N  0.61152182  0.43573220  0.99337625    -0.77800
C105        C  0.63755262  0.41056666  0.00022624     0.82900
N106        N  0.62821448  0.37539184  0.00295861    -0.79600
C107        C  0.99959858  0.36311583  0.58392595     0.80400
N108        N  0.99494267  0.37378765  0.61867504    -0.77900
C109        C  0.99256789  0.40918213  0.62812918     0.82900
N110        N  0.99522006  0.43459356  0.60178772    -0.77800
C111        C  0.00015590  0.42418488  0.56662093     0.82900
N112        N  0.00200979  0.38850514  0.55786627    -0.79600
N113        N  0.95510629  0.45828653  0.95493807    -0.36400
N114        N  0.96308203  0.44904564  0.03300992    -0.57000
N115        N  0.04093899  0.45405662  0.02596406    -0.36400
N116        N  0.03345152  0.45913469  0.94769802    -0.57000
C117        C  0.92091591  0.44951790  0.96410109     0.27200
C118        C  0.95862306  0.45339662  0.91871398     0.27200
C119        C  0.03788716  0.44080032  0.05979647     0.27200
C120        C  0.07491423  0.44667249  0.01459150     0.27200
C121        C  0.92677005  0.45190506  0.03152554     0.35800
C122        C  0.97191430  0.44892650  0.06843321     0.35800
C123        C  0.02434746  0.46587717  0.91311878     0.35800
C124        C  0.06930913  0.46447293  0.95022899     0.35800
C125        C  0.90221700  0.44036206  0.93298478    -0.21700
C126        C  0.92602902  0.44223633  0.90464246    -0.21700
C127        C  0.07025447  0.42514443  0.07002405    -0.21700
C128        C  0.09356215  0.42878440  0.04155503    -0.21700
C129        C  0.91263719  0.45301700  0.06623091    -0.22800
C130        C  0.94109541  0.45164238  0.08943401    -0.22800
C131        C  0.05452822  0.47577988  0.89363832    -0.22800
C132        C  0.08299880  0.47462484  0.91704793    -0.22800
C133        C  0.90590976  0.44994835  0.99958419    -0.18100
C134        C  0.99024850  0.45888707  0.89781089    -0.18100
C135        C  0.09018959  0.45652053  0.98106338    -0.18100
C136        C  0.00699317  0.44297486  0.08216323    -0.18100
H137        H  0.87428912  0.43285870  0.93053226     0.14800
H138        H  0.91982640  0.43599768  0.87678785     0.14800
H139        H  0.07638222  0.41206012  0.09528589     0.14800
H140        H  0.12109865  0.41897878  0.04072744     0.14800
H141        H  0.88470128  0.45348790  0.07442572     0.13100
H142        H  0.93903931  0.45176327  0.11855696     0.13100
H143        H  0.05615467  0.48160686  0.86512672     0.13100
H144        H  0.11082099  0.47869653  0.90974681     0.13100
H145        H  0.97462319  0.46791279  0.97236640     0.26300
H146        H  0.02161833  0.46888679  0.01213841     0.26300
C147        C  0.01262398  0.39740952  0.35042746     0.80400
N148        N  0.00988038  0.36234113  0.36018124    -0.77900
C149        C  0.00648988  0.35310832  0.39527138     0.82900
N150        N  0.00571893  0.37923969  0.42128197    -0.77800
C151        C  0.00855827  0.41454895  0.41191451     0.82900
N152        N  0.01197139  0.42356130  0.37650776    -0.79600
C153        C  0.99581396  0.57851258  0.34193009     0.80400
N154        N  0.99682646  0.61430237  0.34981702    -0.77900
C155        C  0.99996335  0.62619064  0.38444334     0.82900
N156        N  0.00226787  0.60159273  0.41140207    -0.77800
C157        C  0.00130968  0.56561168  0.40375074     0.82900
N158        N  0.99798042  0.55406820  0.36896103    -0.79600
C159        C  0.59729150  0.99024333  0.34249865     0.80400
N160        N  0.63197897  0.99340183  0.35348503    -0.77900
C161        C  0.64028352  0.99654797  0.38894199     0.82900
N162        N  0.61354065  0.99683446  0.41404344    -0.77800
C163        C  0.57862162  0.99426404  0.40346014     0.82900
N164        N  0.57060338  0.99073602  0.36780402    -0.79600
N165        N  0.04101946  0.94994264  0.42732077    -0.36400
N166        N  0.96250308  0.95134494  0.42507030    -0.57000
N167        N  0.96242455  0.02986405  0.42543423    -0.36400
N168        N  0.04076971  0.02855727  0.42262847    -0.57000
C169        C  0.03350191  0.91558304  0.41709520     0.27200
C170        C  0.07523293  0.95669262  0.41665916     0.27200
C171        C  0.92823060  0.02253215  0.41548869     0.27200
C172        C  0.96980468  0.06343695  0.41357294     0.27200
C173        C  0.96832649  0.91595740  0.43188657     0.35800
C174        C  0.92730689  0.95809405  0.43225377     0.35800
C175        C  0.07608628  0.02255125  0.42928229     0.35800
C176        C  0.03470828  0.06427170  0.42818379     0.35800
C177        C  0.06327268  0.90046679  0.39978103    -0.21700
C178        C  0.08962141  0.92627962  0.39971227    -0.21700
C179        C  0.91380598  0.05170919  0.39713205    -0.21700
C180        C  0.94005486  0.07752122  0.39591383    -0.21700
C181        C  0.93662326  0.90024093  0.44337644    -0.22800
C182        C  0.91082531  0.92700623  0.44414931    -0.22800
C183        C  0.09244455  0.05466153  0.43906155    -0.22800
C184        C  0.06617440  0.08097091  0.43881783    -0.22800
C185        C  0.00090575  0.89716308  0.42407314    -0.18100
C186        C  0.09415292  0.98925413  0.42269564    -0.18100
C187        C  0.00208718  0.08231648  0.41984054    -0.18100
C188        C  0.90926579  0.99078361  0.42392599    -0.18100
H189        H  0.06575909  0.87364457  0.38815328     0.14800
H190        H  0.11621357  0.92313673  0.38801041     0.14800
H191        H  0.88717050  0.05412174  0.38561064     0.14800
H192        H  0.93753146  0.10366516  0.38332661     0.14800
H193        H  0.93200778  0.87211880  0.44916919     0.13100
H194        H  0.88276426  0.92346765  0.45098989     0.13100
H195        H  0.12066237  0.05922784  0.44400581     0.13100
H196        H  0.07015778  0.10937016  0.44442989     0.13100
H197        H  0.02438960  0.96723555  0.44232245     0.26300
H198        H  0.97902334  0.01371882  0.44126802     0.26300
C199        C  0.63735811  0.58988018  0.96689803     0.80400
N200        N  0.61100052  0.56553846  0.97317416    -0.77900
C201        C  0.57605773  0.57663475  0.97562922     0.82900
N202        N  0.56758535  0.61233130  0.97224454    -0.77800
C203        C  0.59400138  0.63687131  0.96622261     0.82900
N204        N  0.62868456  0.62529943  0.96323931    -0.79600
C205        C  0.99881093  0.59792599  0.61573426     0.80400
N206        N  0.99614193  0.63244821  0.60432893    -0.77900
C207        C  0.99334459  0.63981150  0.56870025     0.82900
N208        N  0.99340976  0.61224475  0.54413939    -0.77800
C209        C  0.99557008  0.57744219  0.55558848     0.82900
N210        N  0.99847152  0.57037144  0.59137430    -0.79600
C211        C  0.63557496  0.99396686  0.57499162     0.80400
N212        N  0.61059733  0.99302701  0.54815609    -0.77900
C213        C  0.57480571  0.99421581  0.55621991     0.82900
N214        N  0.56383887  0.99652814  0.59117480    -0.77800
C215        C  0.58853472  0.99726669  0.61803224     0.82900
N216        N  0.62414555  0.99597293  0.60985788    -0.79600
N217        N  0.55895389  0.96492686  0.93759479    -0.36400
N218        N  0.55433127  0.95777031  0.01577672    -0.57000
N219        N  0.55618692  0.03701564  0.02246305    -0.36400
N220        N  0.55590590  0.04413859  0.94421428    -0.57000
C221        C  0.55342692  0.92891295  0.94027456     0.27200
C222        C  0.55290466  0.97424604  0.90288722     0.27200
C223        C  0.54888994  0.02784838  0.05702901     0.27200
C224        C  0.55107072  0.07322152  0.01955202     0.27200
C225        C  0.56173341  0.92290769  0.00681273     0.35800
C226        C  0.55929759  0.96096909  0.05185391     0.35800
C227        C  0.56214652  0.04095179  0.90831117     0.35800
C228        C  0.56196898  0.07906936  0.95325638     0.35800
C229        C  0.54399157  0.91522908  0.90666363    -0.21700
C230        C  0.54333921  0.94374010  0.88330146    -0.21700
C231        C  0.53885379  0.05872783  0.07620806    -0.21700
C232        C  0.54067855  0.08720793  0.05284070    -0.21700
C233        C  0.57044987  0.90370423  0.03754164    -0.22800
C234        C  0.56958421  0.92783499  0.06581583    -0.22800
C235        C  0.57165019  0.07412014  0.89438893    -0.22800
C236        C  0.57120112  0.09827631  0.92269446    -0.22800
C237        C  0.55946120  0.90781662  0.97152752    -0.18100
C238        C  0.55846591  0.00881143  0.88763376    -0.18100
C239        C  0.55804301  0.09423427  0.98841024    -0.18100
C240        C  0.55395296  0.99309978  0.07258421    -0.18100
H241        H  0.53877879  0.88754286  0.89909405     0.14800
H242        H  0.53757808  0.94181193  0.85476678     0.14800
H243        H  0.53228270  0.06100532  0.10458391     0.14800
H244        H  0.53587780  0.11514116  0.06016464     0.14800
H245        H  0.57692160  0.87527216  0.03961761     0.13100
H246        H  0.57593771  0.92147914  0.09350938     0.13100
H247        H  0.57823420  0.08036955  0.86669378     0.13100
H248        H  0.57702658  0.12675198  0.92079118     0.13100
H249        H  0.56891032  0.98166035  0.95759994     0.26300
H250        H  0.56662618  0.01997350  0.00274909     0.26300
N251        N  0.03814364  0.96323063  0.53780539    -0.36400
N252        N  0.03792038  0.04171854  0.53178567    -0.57000
N253        N  0.95904216  0.04082526  0.53631166    -0.36400
N254        N  0.95962726  0.96199464  0.53588653    -0.57000
C255        C  0.07312814  0.96942539  0.52995685     0.27200
C256        C  0.03229556  0.92761528  0.53210816     0.27200
C257        C  0.96488088  0.07588050  0.52844365     0.27200
C258        C  0.92383497  0.03405634  0.52998652     0.27200
C259        C  0.07330530  0.03604370  0.53866757     0.35800
C260        C  0.03134418  0.07720942  0.53815700     0.35800
C261        C  0.96669461  0.92749301  0.54553218     0.35800
C262        C  0.92468055  0.96855042  0.54435113     0.35800
C263        C  0.08963418  0.93745410  0.51912588    -0.21700
C264        C  0.06399595  0.91121773  0.52046030    -0.21700
C265        C  0.93295026  0.09165433  0.51699931    -0.21700
C266        C  0.90713437  0.06526245  0.51778438    -0.21700
C267        C  0.08936585  0.06815044  0.54879731    -0.22800
C268        C  0.06285568  0.09416404  0.54853847    -0.22800
C269        C  0.93606584  0.91207720  0.55994878    -0.22800
C270        C  0.90949673  0.93801124  0.55917100    -0.22800
C271        C  0.09140228  0.00232113  0.53550716    -0.18100
C272        C  0.99998598  0.90918797  0.54002035    -0.18100
C273        C  0.90594127  0.00135633  0.53787296    -0.18100
C274        C  0.99744995  0.09469293  0.53427783    -0.18100
H275        H  0.11774601  0.93293306  0.51291588     0.14800
H276        H  0.06912762  0.88295465  0.51566147     0.14800
H277        H  0.92841176  0.11959156  0.50991086     0.14800
H278        H  0.87897215  0.06908560  0.51141522     0.14800
H279        H  0.11713808  0.07239543  0.55628871     0.13100
H280        H  0.06643863  0.12224182  0.55584161     0.13100
H281        H  0.93319925  0.88505465  0.57034616     0.13100
H282        H  0.88223841  0.93480969  0.56892755     0.13100
H283        H  0.02013018  0.98161629  0.54920959     0.26300
H284        H  0.97742408  0.02335989  0.54806423     0.26300
N285        N  0.96135344  0.57259264  0.93830425    -0.36400
N286        N  0.03985567  0.57715988  0.94073171    -0.57000
N287        N  0.03671525  0.57294616  0.01937764    -0.36400
N288        N  0.95848458  0.56293269  0.01649484    -0.57000
C289        C  0.96928023  0.57101719  0.90261906     0.27200
C290        C  0.92626013  0.56380816  0.94225355     0.27200
C291        C  0.07259932  0.56899139  0.01345920     0.27200
C292        C  0.02989955  0.56200441  0.05347368     0.27200
C293        C  0.03431187  0.58698587  0.90614183     0.35800
C294        C  0.07398948  0.58654541  0.94883017     0.35800
C295        C  0.92277945  0.56670026  0.00981549     0.35800
C296        C  0.96275090  0.56642644  0.05267180     0.35800
C297        C  0.93882923  0.56107618  0.88367219    -0.21700
C298        C  0.91173935  0.55700395  0.90838581    -0.21700
C299        C  0.08875792  0.55560656  0.04424031    -0.21700
C300        C  0.06196663  0.55137240  0.06938917    -0.21700
C301        C  0.06511948  0.60250941  0.89219594    -0.22800
C302        C  0.09020694  0.60229866  0.91924900    -0.22800
C303        C  0.90435464  0.57166742  0.04214496    -0.22800
C304        C  0.92956055  0.57202744  0.06904391    -0.22800
C305        C  0.00241295  0.58073010  0.88637068    -0.18100
C306        C  0.90640825  0.56470762  0.97513391    -0.18100
C307        C  0.99597679  0.56345009  0.07135337    -0.18100
C308        C  0.09145807  0.57900152  0.98180148    -0.18100
H309        H  0.93580136  0.55828820  0.85477397     0.14800
H310        H  0.88429438  0.55086650  0.90135235     0.14800
H311        H  0.11707894  0.55035260  0.04865242     0.14800
H312        H  0.06610319  0.54269481  0.09671371     0.14800
H313        H  0.06909800  0.61306431  0.86536340     0.13100
H314        H  0.11734609  0.61248740  0.91731875     0.13100
H315        H  0.87568667  0.57486136  0.04630289     0.13100
H316        H  0.92386533  0.57610224  0.09744168     0.13100
H317        H  0.97825642  0.58150753  0.95853493     0.26300
H318        H  0.01827199  0.58461083  0.00200250     0.26300
C319        C  0.72654153  0.00235619  0.52696067    -0.27400
C320        C  0.75053172  0.99481738  0.55516968     0.02200
C321        C  0.73659560  0.98564761  0.58915920     0.30300
C322        C  0.69934495  0.98502882  0.59487486    -0.19200
C323        C  0.67502187  0.99326819  0.56698097    -0.28600
C324        C  0.68911613  0.00165942  0.53258307     0.44300
C325        C  0.79003845  0.99737453  0.54940406     0.05500
O326        O  0.75923625  0.97731657  0.61710141    -0.57100
H327        H  0.68953686  0.97807081  0.62144869     0.18400
O328        O  0.66677974  0.01107154  0.50476116    -0.63900
H329        H  0.73683595  0.00961349  0.50065514     0.16900
C330        C  0.80801882  0.97487218  0.52425849     0.29100
C331        C  0.84542727  0.97725636  0.51988511    -0.24700
C332        C  0.86568135  0.00150603  0.54080242    -0.24000
C333        C  0.84759418  0.02387233  0.56615944     0.40600
C334        C  0.81011007  0.02195905  0.57001177    -0.26500
O335        O  0.78952635  0.94909873  0.50533228    -0.58400
H336        H  0.85886221  0.95946972  0.50071030     0.16200
O337        O  0.86638282  0.04720201  0.58783323    -0.59800
H338        H  0.79666591  0.03937249  0.58958947     0.14700
H339        H  0.66494158  0.98904850  0.48950925     0.46500
H340        H  0.78409211  0.96024470  0.48179083     0.41900
H341        H  0.87465506  0.03247655  0.60847321     0.45300
H342        H  0.76502493  0.95128476  0.61389046     0.36800
C343        C  0.53846754  0.02766162  0.78856896    -0.27400
C344        C  0.56522917  0.00661052  0.77130935     0.02200
C345        C  0.59153303  0.98922822  0.79245331     0.30300
C346        C  0.58954258  0.99123671  0.83014509    -0.19200
C347        C  0.56170751  0.01064779  0.84747370    -0.28600
C348        C  0.53660640  0.02991559  0.82633524     0.44300
C349        C  0.56644781  0.00391561  0.73126322     0.05500
O350        O  0.62016402  0.97159433  0.77642122    -0.57100
H351        H  0.60963265  0.97721614  0.84603166     0.18400
O352        O  0.51058637  0.05154311  0.84205591    -0.63900
H353        H  0.51861222  0.04197398  0.77266229     0.16900
C354        C  0.56784295  0.97006293  0.71345518     0.29100
C355        C  0.57373406  0.96819724  0.67610545    -0.24700
C356        C  0.57721389  0.99976671  0.65599654    -0.24000
C357        C  0.57312610  0.03354545  0.67319273     0.40600
C358        C  0.56792990  0.03549657  0.71063397    -0.26500
O359        O  0.56445403  0.93869301  0.73250030    -0.58400
H360        H  0.57645069  0.94204602  0.66295786     0.16200
O361        O  0.57598759  0.06479063  0.65389105    -0.59800
H362        H  0.56646094  0.06173065  0.72376767     0.14700
H363        H  0.49596189  0.03561824  0.85747427     0.46500
H364        H  0.54043375  0.92918917  0.72605196     0.41900
H365        H  0.55164755  0.06912121  0.64380019     0.45300
H366        H  0.61685001  0.94564150  0.78173441     0.36800
C367        C  0.03483415  0.59747637  0.71074255    -0.27400
C368        C  0.00452576  0.58611066  0.73013648     0.02200
C369        C  0.97324308  0.57610189  0.71121869     0.30300
C370        C  0.97229594  0.57846250  0.67353040    -0.19200
C371        C  0.00213735  0.59094415  0.65443596    -0.28600
C372        C  0.03366769  0.60019421  0.67310467     0.44300
C373        C  0.00533259  0.58580455  0.77009614     0.05500
O374        O  0.94322378  0.56492534  0.72948683    -0.57100
H375        H  0.94780139  0.57165915  0.65930214     0.18400
O376        O  0.06344560  0.61181644  0.65473813    -0.63900
H377        H  0.05905679  0.60526512  0.72490264     0.16900
C378        C  0.02978180  0.56364195  0.78882270     0.29100
C379        C  0.02823884  0.56192041  0.82648969    -0.24700
C380        C  0.00397805  0.58376790  0.84621545    -0.24000
C381        C  0.98131390  0.60792268  0.82751045     0.40600
C382        C  0.98144455  0.60810887  0.78974128    -0.26500
O383        O  0.05465659  0.54286488  0.77052661    -0.58400
H384        H  0.04621174  0.54361156  0.84042501     0.16200
O385        O  0.95841248  0.63088026  0.84589437    -0.59800
H386        H  0.96313375  0.62602312  0.77569262     0.14700
H387        H  0.06047063  0.63839079  0.65316776     0.46500
H388        H  0.07725896  0.55687445  0.77132126     0.41900
H389        H  0.97355339  0.65140561  0.85370597     0.45300
H390        H  0.93904185  0.53978389  0.72116157     0.36800
C391        C  0.02463159  0.81182326  0.56439544    -0.27400
C392        C  0.00006038  0.79243397  0.54324112     0.02200
C393        C  0.97584254  0.81124741  0.52115473     0.30300
C394        C  0.97647845  0.84897977  0.52026150    -0.19200
C395        C  0.00067628  0.86873475  0.54151083    -0.28600
C396        C  0.02468414  0.84971155  0.56412063     0.44300
C397        C  0.99738450  0.75283786  0.54690526     0.05500
O398        O  0.95060439  0.79289736  0.50141221    -0.57100
H399        H  0.95741933  0.86300318  0.50349357     0.18400
O400        O  0.04798470  0.86783432  0.58632396    -0.63900
H401        H  0.04295795  0.79755171  0.58205820     0.16900
C402        C  0.02327987  0.72921190  0.53165902     0.29100
C403        C  0.02043642  0.69181070  0.53684853    -0.24700
C404        C  0.99222172  0.67784229  0.55754464    -0.24000
C405        C  0.96585881  0.70149882  0.57190932     0.40600
C406        C  0.96845347  0.73867208  0.56638277    -0.26500
O407        O  0.05202518  0.74261415  0.51289323    -0.58400
H408        H  0.04118778  0.67390104  0.52615505     0.16200
O409        O  0.93797899  0.68857726  0.59225176    -0.59800
H410        H  0.94829259  0.75664557  0.57808543     0.14700
H411        H  0.03321876  0.87601039  0.60724992     0.46500
H412        H  0.04970844  0.73284478  0.48801921     0.41900
H413        H  0.91907156  0.68204238  0.57459446     0.45300
H414        H  0.95719224  0.79659650  0.47578005     0.36800
C415        C  0.73357407  0.57905553  0.93460778    -0.27400
C416        C  0.75050157  0.56673482  0.96598011     0.02200
C417        C  0.72955502  0.55897453  0.99660861     0.30300
C418        C  0.69214599  0.56464253  0.99590775    -0.19200
C419        C  0.67546263  0.57860309  0.96511226    -0.28600
C420        C  0.69631770  0.58540247  0.93417726     0.44300
C421        C  0.79024678  0.56564011  0.96774112     0.05500
O422        O  0.74579478  0.54802223  0.02791421    -0.57100
H423        H  0.67642229  0.55985219  0.02004603     0.18400
O424        O  0.68047431  0.59840145  0.90348667    -0.63900
H425        H  0.74949580  0.58516331  0.91092569     0.16900
C426        C  0.81016461  0.53598452  0.95428685     0.29100
C427        C  0.84782620  0.53545953  0.95777389    -0.24700
C428        C  0.86613950  0.56508746  0.97277690    -0.24000
C429        C  0.84599654  0.59565516  0.98400384     0.40600
C430        C  0.80836052  0.59531737  0.98246027    -0.26500
O431        O  0.79304066  0.50845520  0.93634569    -0.58400
H432        H  0.86289760  0.51202471  0.94828720     0.16200
O433        O  0.86291351  0.62594531  0.99672029    -0.59800
H434        H  0.79321553  0.61866469  0.99206894     0.14700
H435        H  0.68305852  0.62499686  0.90502007     0.46500
H436        H  0.80179712  0.48562055  0.94710376     0.41900
H437        H  0.86582878  0.64161585  0.97538555     0.45300
H438        H  0.73533762  0.52416267  0.03344905     0.36800
C439        C  0.60148624  0.81336700  0.97049256    -0.27400
C440        C  0.57210143  0.79192408  0.96054131     0.02200
C441        C  0.53916856  0.80892187  0.95215927     0.30300
C442        C  0.53518333  0.84637585  0.95637159    -0.19200
C443        C  0.56427173  0.86783127  0.96697801    -0.28600
C444        C  0.59793387  0.85104219  0.97306091     0.44300
C445        C  0.57590120  0.75191345  0.95998796     0.05500
O446        O  0.51079036  0.78919510  0.93955557    -0.57100
H447        H  0.50940786  0.85885640  0.95082063     0.18400
O448        O  0.62726950  0.87117907  0.98254470    -0.63900
H449        H  0.62717178  0.80079671  0.97664342     0.16900
C450        C  0.60127852  0.73449393  0.93738139     0.29100
C451        C  0.60625245  0.69699600  0.93917163    -0.24700
C452        C  0.58583293  0.67604837  0.96303846    -0.24000
C453        C  0.55994754  0.69342836  0.98521562     0.40600
C454        C  0.55524208  0.73104129  0.98361523    -0.26500
O455        O  0.62172909  0.75396127  0.91377578    -0.58400
H456        H  0.62633965  0.68423092  0.92189542     0.16200
O457        O  0.54027356  0.67418996  0.00967147    -0.59800
H458        H  0.53631373  0.74409296  0.00186757     0.14700
H459        H  0.63742405  0.87976931  0.95942123     0.46500
H460        H  0.60652879  0.75682150  0.89202247     0.41900
H461        H  0.55315681  0.67692893  0.03291486     0.45300
H462        H  0.51247353  0.79049810  0.91289163     0.36800
C463        C  0.73283322  0.96795384  0.42020680    -0.27400
C464        C  0.75336736  0.99842953  0.41181567     0.02200
C465        C  0.73596626  0.02908944  0.39754746     0.30300
C466        C  0.69872521  0.02862299  0.39126270    -0.19200
C467        C  0.67837944  0.99810785  0.39963537    -0.28600
C468        C  0.69559490  0.96773479  0.41440756     0.44300
C469        C  0.79315431  0.99670936  0.41548244     0.05500
O470        O  0.75554122  0.05846825  0.38714927    -0.57100
H471        H  0.68583201  0.05180824  0.37900047     0.18400
O472        O  0.67669557  0.93678738  0.42070577    -0.63900
H473        H  0.74587570  0.94389150  0.43047558     0.16900
C474        C  0.81185587  0.02103671  0.43782700     0.29100
C475        C  0.84941508  0.01832711  0.44078512    -0.24700
C476        C  0.86900902  0.99173061  0.42155499    -0.24000
C477        C  0.85019193  0.96782880  0.39871411     0.40600
C478        C  0.81262411  0.97004259  0.39634683    -0.26500
O479        O  0.79365842  0.04756612  0.45671073    -0.58400
H480        H  0.86340848  0.03725044  0.45797947     0.16200
O481        O  0.86826827  0.94254064  0.37812157    -0.59800
H482        H  0.79863070  0.95133563  0.37879397     0.14700
H483        H  0.66932660  0.93835724  0.44640535     0.46500
H484        H  0.79482738  0.04033298  0.48235695     0.41900
H485        H  0.87619425  0.95557092  0.35628403     0.45300
H486        H  0.74920999  0.07790716  0.40470411     0.36800
C487        C  0.60776017  0.98044405  0.24036948    -0.27400
C488        C  0.57216826  0.98454002  0.22845990     0.02200
C489        C  0.54444737  0.98739160  0.25446235     0.30300
C490        C  0.55286483  0.98867216  0.29138697    -0.19200
C491        C  0.58880765  0.98664063  0.30325407    -0.28600
C492        C  0.61628855  0.98179669  0.27705376     0.44300
C493        C  0.56535898  0.98775830  0.18893525     0.05500
O494        O  0.50922111  0.99081783  0.24418236    -0.57100
H495        H  0.53108770  0.99205643  0.31067725     0.18400
O496        O  0.65173928  0.97821200  0.28672971    -0.63900
H497        H  0.62940096  0.97693007  0.22092723     0.16900
C498        C  0.58586330  0.01183896  0.16815261     0.29100
C499        C  0.58215838  0.01260730  0.13069885    -0.24700
C500        C  0.55671020  0.99108619  0.11295526    -0.24000
C501        C  0.53491296  0.96808194  0.13376249     0.40600
C502        C  0.53982302  0.96605667  0.17137207    -0.26500
O503        O  0.60990121  0.03477791  0.18421450    -0.58400
H504        H  0.59919127  0.03044364  0.11532461     0.16200
O505        O  0.50980794  0.94655094  0.11733104    -0.59800
H506        H  0.52393871  0.94718936  0.18669486     0.14700
H507        H  0.66190402  0.00278126  0.28468714     0.46500
H508        H  0.59512329  0.05525850  0.19361886     0.36800
H509        H  0.48613393  0.95473016  0.12689665     0.45300
H510        H  0.49843929  0.96680227  0.24824547     0.36800
C511        C  0.99154979  0.71814445  0.43154158    -0.27400
C512        C  0.00063414  0.74138416  0.40332730     0.02200
C513        C  0.01043447  0.72671287  0.36958596     0.30300
C514        C  0.01062848  0.68927639  0.36418844    -0.19200
C515        C  0.00086877  0.66570613  0.39206914    -0.28600
C516        C  0.99132399  0.68058503  0.42610168     0.44300
C517        C  0.99989047  0.78096213  0.40921203     0.05500
O518        O  0.02090842  0.74879819  0.34203485    -0.57100
H519        H  0.01854501  0.67871488  0.33794965     0.18400
O520        O  0.98103668  0.65888770  0.45400925    -0.63900
H521        H  0.98392503  0.72922419  0.45766766     0.16900
C522        C  0.97468872  0.80305862  0.39147172     0.29100
C523        C  0.97530872  0.84058909  0.39648777    -0.24700
C524        C  0.00028438  0.85676235  0.41994419    -0.24000
C525        C  0.02514424  0.83430909  0.43808349     0.40600
C526        C  0.02502671  0.79683023  0.43225576    -0.26500
O527        O  0.94957808  0.78823645  0.36885769    -0.58400
H528        H  0.95628707  0.85719372  0.38182212     0.16200
O529        O  0.05037960  0.84893133  0.46064197    -0.59800
H530        H  0.04494289  0.78015006  0.44552795     0.14700
H531        H  0.95443745  0.65759682  0.45234674     0.46500
H532        H  0.92989985  0.78011090  0.38490974     0.41900
H533        H  0.04864761  0.83527758  0.48346623     0.45300
H534        H  0.99988686  0.75022418  0.32567062     0.36800
C535        C  0.01424210  0.58463972  0.17063888    -0.27400
C536        C  0.99405817  0.55817120  0.18820015     0.02200
C537        C  0.97398287  0.53365665  0.16739315     0.30300
C538        C  0.97506575  0.53536125  0.12955888    -0.19200
C539        C  0.99536886  0.56176715  0.11184661    -0.28600
C540        C  0.01456468  0.58691327  0.13294332     0.44300
C541        C  0.99349459  0.55756102  0.22825478     0.05500
O542        O  0.95296599  0.50832290  0.18382394    -0.57100
H543        H  0.95966458  0.51633677  0.11391526     0.18400
O544        O  0.03360264  0.61400467  0.11695156    -0.63900
H545        H  0.02924855  0.60416730  0.18633509     0.16900
C546        C  0.02561635  0.55299735  0.24786889     0.29100
C547        C  0.02559396  0.55763007  0.28546395    -0.24700
C548        C  0.99381389  0.56693713  0.30389886    -0.24000
C549        C  0.96140389  0.57000789  0.28459898     0.40600
C550        C  0.96132162  0.56508303  0.24701329    -0.26500
O551        O  0.05743390  0.54573387  0.23024024    -0.58400
H552        H  0.05076458  0.55562120  0.30003678     0.16200
O553        O  0.93009066  0.57971811  0.30200351    -0.59800
H554        H  0.93645217  0.56894004  0.23229003     0.14700
H555        H  0.01591699  0.63388236  0.11346537     0.46500
H556        H  0.06325231  0.52021528  0.23580295     0.41900
H557        H  0.91908639  0.55662984  0.30936155     0.45300
H558        H  0.96589518  0.48502336  0.18037745     0.36800
C559        C  0.02424077  0.17809685  0.39045643    -0.27400
C560        C  0.00003441  0.19875972  0.41153821     0.02200
C561        C  0.97519117  0.18089921  0.43374907     0.30300
C562        C  0.97634932  0.14315039  0.43620828    -0.19200
C563        C  0.00151114  0.12253598  0.41627825    -0.28600
C564        C  0.02466743  0.14033803  0.39219805     0.44300
C565        C  0.00112781  0.23884006  0.41009637     0.05500
O566        O  0.94955717  0.20012962  0.45282141    -0.57100
H567        H  0.95752523  0.12984690  0.45382957     0.18400
O568        O  0.04768646  0.12109994  0.37010518    -0.63900
H569        H  0.04263553  0.19133752  0.37221971     0.16900
C570        C  0.03344539  0.25746402  0.41673363     0.29100
C571        C  0.03436752  0.29519520  0.41381166    -0.24700
C572        C  0.00345958  0.31470506  0.40422592    -0.24000
C573        C  0.97110164  0.29630968  0.39805331     0.40600
C574        C  0.97000416  0.25866270  0.40117649    -0.26500
O575        O  0.06444792  0.23877585  0.42484816    -0.58400
H576        H  0.05959803  0.30910624  0.41777814     0.16200
O577        O  0.94083505  0.31477273  0.38738898    -0.59800
H578        H  0.94507697  0.24480700  0.39549616     0.14700
H579        H  0.03270514  0.11291486  0.34955148     0.46500
H580        H  0.07256700  0.24836086  0.44849941     0.41900
H581        H  0.92917204  0.32322395  0.41009242     0.45300
H582        H  0.95415505  0.19514211  0.47863185     0.36800
C583        C  0.03518656  0.45105351  0.18091590    -0.27400
C584        C  0.01567194  0.42310440  0.19662137     0.02200
C585        C  0.99474574  0.40051535  0.17448299     0.30300
C586        C  0.99291669  0.40664139  0.13728619    -0.19200
C587        C  0.01123210  0.43560997  0.12162043    -0.28600
C588        C  0.03302670  0.45751035  0.14371939     0.44300
C589        C  0.01712548  0.41780729  0.23615898     0.05500
O590        O  0.97468315  0.37346079  0.18927734    -0.57100
H591        H  0.97646609  0.38917724  0.12066299     0.18400
O592        O  0.05254099  0.48496125  0.12900052    -0.63900
H593        H  0.05194686  0.46809885  0.19760207     0.16900
C594        C  0.03121588  0.38568251  0.25047496     0.29100
C595        C  0.03032694  0.38001296  0.28769122    -0.24700
C596        C  0.01571715  0.40618244  0.31148157    -0.24000
C597        C  0.00266215  0.43898245  0.29716879     0.40600
C598        C  0.00355562  0.44460936  0.25973623    -0.26500
O599        O  0.04553835  0.35941444  0.22821715    -0.58400
H600        H  0.04092188  0.35477140  0.29793932     0.16200
O601        O  0.98679312  0.46461645  0.31910800    -0.59800
H602        H  0.99260586  0.46950015  0.24898635     0.14700
H603        H  0.04635635  0.50688760  0.14336622     0.46500
H604        H  0.07108172  0.36616839  0.22479367     0.41900
H605        H  0.00545588  0.48321689  0.32291562     0.45300
H606        H  0.98688492  0.35064397  0.18180075     0.36800
C607        C  0.97595435  0.40171807  0.72949699    -0.27400
C608        C  0.98547064  0.43608164  0.74210851     0.02200
C609        C  0.99530926  0.46243926  0.71678873     0.30300
C610        C  0.99611554  0.45401195  0.67965739    -0.19200
C611        C  0.98782672  0.41912980  0.66709248    -0.28600
C612        C  0.97677207  0.39317496  0.69265316     0.44300
C613        C  0.98673095  0.44296905  0.78182787     0.05500
O614        O  0.00570530  0.49602302  0.72817149    -0.57100
H615        H  0.00463974  0.47449351  0.66087704     0.18400
O616        O  0.96705107  0.35901433  0.68220844    -0.63900
H617        H  0.96801193  0.38115740  0.74847263     0.16900
C618        C  0.96675788  0.47115281  0.79841242     0.29100
C619        C  0.96781956  0.47597594  0.83606971    -0.24700
C620        C  0.98868264  0.45315424  0.85775595    -0.24000
C621        C  0.00807819  0.42452033  0.84120470     0.40600
C622        C  0.00714448  0.41974700  0.80368518    -0.26500
O623        O  0.94476788  0.49291945  0.77824547    -0.58400
H624        H  0.95196811  0.49729208  0.84845359     0.16200
O625        O  0.02823140  0.40109906  0.86150658    -0.59800
H626        H  0.02245513  0.39771243  0.79154195     0.14700
H627        H  0.94148715  0.36118872  0.67483467     0.46500
H628        H  0.95434116  0.51763181  0.78148898     0.41900
H629        H  0.01059716  0.38472345  0.87282227     0.45300
H630        H  0.03211607  0.49644968  0.72429576     0.36800
C631        C  0.97648676  0.18817743  0.57265899    -0.27400
C632        C  0.99700749  0.21025243  0.55013072     0.02200
C633        C  0.01689820  0.19435650  0.52163436     0.30300
C634        C  0.01582438  0.15697529  0.51578111    -0.19200
C635        C  0.99567187  0.13479103  0.53861140    -0.28600
C636        C  0.97581295  0.15076592  0.56718160     0.44300
C637        C  0.99872366  0.24954150  0.55781552     0.05500
O638        O  0.03808277  0.21502100  0.49985997    -0.57100
H639        H  0.03153201  0.14509000  0.49395444     0.18400
O640        O  0.95611654  0.12995849  0.59028449    -0.63900
H641        H  0.96124577  0.20001043  0.59485630     0.16900
C642        C  0.98757664  0.27518407  0.53228351     0.29100
C643        C  0.98870039  0.31213316  0.54077479    -0.24700
C644        C  0.00065088  0.32407487  0.57473675    -0.24000
C645        C  0.01209731  0.29821897  0.60015808     0.40600
C646        C  0.01099489  0.26140614  0.59158776    -0.26500
O647        O  0.97365255  0.26427491  0.49979967    -0.58400
H648        H  0.97922250  0.33139370  0.52105218     0.16200
O649        O  0.02433043  0.30848952  0.63356442    -0.59800
H650        H  0.01978963  0.24195077  0.61144174     0.14700
H651        H  0.97363894  0.12094055  0.60828774     0.46500
H652        H  0.99154204  0.27166340  0.48148270     0.41900
H653        H  0.04999571  0.31465101  0.62988810     0.45300
H654        H  0.06116157  0.21752066  0.51297527     0.36800
C655        C  0.80650839  0.46757836  0.01987240    -0.27400
C656        C  0.79096018  0.43509919  0.00851878     0.02200
C657        C  0.81351926  0.40675413  0.99605327     0.30300
C658        C  0.85082771  0.41167730  0.99402377    -0.19200
C659        C  0.86622108  0.44482055  0.00374092    -0.28600
C660        C  0.84384390  0.47242726  0.01797053     0.44300
C661        C  0.75121205  0.43120924  0.00919873     0.05500
O662        O  0.79913972  0.37486071  0.98401531    -0.57100
H663        H  0.86778913  0.38980153  0.98399140     0.18400
O664        O  0.85833022  0.50445877  0.02939954    -0.63900
H665        H  0.78968126  0.48931813  0.03018346     0.16900
C666        C  0.73507871  0.40321415  0.02859563     0.29100
C667        C  0.69801411  0.39770053  0.02612185    -0.24700
C668        C  0.67600076  0.42029310  0.00505588    -0.24000
C669        C  0.69183645  0.44983943  0.98746934     0.40600
C670        C  0.72918573  0.45509533  0.98968698    -0.26500
O671        O  0.75536420  0.38086453  0.04990614    -0.58400
H672        H  0.68647619  0.37533333  0.04065111     0.16200
O673        O  0.67140511  0.47299935  0.96716708    -0.59800
H674        H  0.74105599  0.47726581  0.97521803     0.14700
H675        H  0.85172080  0.50710049  0.05525176     0.46500
H676        H  0.75809488  0.39414361  0.07308567     0.41900
H677        H  0.67532625  0.46517879  0.94177613     0.45300
H678        H  0.80654253  0.35649774  0.00190261     0.36800
C679        C  0.59841386  0.26556303  0.02328460    -0.27400
C680        C  0.57496104  0.25020752  0.99795525     0.02200
C681        C  0.55593585  0.27318169  0.97442003     0.30300
C682        C  0.56067147  0.31067234  0.97625276    -0.19200
C683        C  0.58517606  0.32585344  0.00062211    -0.28600
C684        C  0.60368002  0.30295125  0.02468988     0.44300
C685        C  0.57092154  0.21025790  0.99610186     0.05500
O686        O  0.53383712  0.25918077  0.94842791    -0.57100
H687        H  0.54648546  0.32772137  0.95730494     0.18400
O688        O  0.62724787  0.31678129  0.04953726    -0.63900
H689        H  0.61291343  0.24842775  0.04191842     0.16900
C690        C  0.60098505  0.18721501  0.99077955     0.29100
C691        C  0.59652830  0.14964585  0.98913004    -0.24700
C692        C  0.56228409  0.13428500  0.99272754    -0.24000
C693        C  0.53248741  0.15726779  0.99904062     0.40600
C694        C  0.53682494  0.19489570  0.00024551    -0.26500
O695        O  0.63480966  0.20114795  0.98667314    -0.58400
H696        H  0.61981994  0.13237501  0.98445324     0.16200
O697        O  0.49906452  0.14304026  0.00428388    -0.59800
H698        H  0.51350278  0.21209845  0.00501056     0.14700
H699        H  0.61230702  0.32285305  0.07101829     0.46500
H700        H  0.63617725  0.20872862  0.96111643     0.41900
H701        H  0.49181931  0.15097903  0.02889849     0.45300
H702        H  0.54934070  0.25589414  0.92678262     0.36800
C703        C  0.27134352  0.01060801  0.42535198    -0.27400
C704        C  0.24995729  0.98409711  0.40904322     0.02200
C705        C  0.26628261  0.95777712  0.38660352     0.30300
C706        C  0.30342092  0.95876311  0.37998223    -0.19200
C707        C  0.32484445  0.98532574  0.39622216    -0.28600
C708        C  0.30860596  0.01120411  0.41928996     0.44300
C709        C  0.21035575  0.98561348  0.41342461     0.05500
O710        O  0.24587469  0.93212727  0.36959393    -0.57100
H711        H  0.31548975  0.93902567  0.36173894     0.18400
O712        O  0.32863181  0.03816673  0.43465576    -0.63900
H713        H  0.25900401  0.03133377  0.44221042     0.16900
C714        C  0.19249603  0.96284467  0.43758786     0.29100
C715        C  0.15481240  0.96444564  0.44045790    -0.24700
C716        C  0.13442502  0.98856007  0.41951703    -0.24000
C717        C  0.15254114  0.01056818  0.39457988     0.40600
C718        C  0.19017837  0.00937676  0.39211760    -0.26500
O719        O  0.21163331  0.93826175  0.45754250    -0.58400
H720        H  0.14141042  0.94643515  0.45871757     0.16200
O721        O  0.13368199  0.03292619  0.37203567    -0.59800
H722        H  0.20368416  0.02654128  0.37292767     0.14700
H723        H  0.32879663  0.05780134  0.41664652     0.46500
H724        H  0.20710670  0.94488585  0.48315706     0.41900
H725        H  0.12575966  0.01723130  0.35179930     0.45300
H726        H  0.24385244  0.91217819  0.38711594     0.36800
C727        C  0.39150678  0.00974782  0.16626546    -0.27400
C728        C  0.42293712  0.01561356  0.18656344     0.02200
C729        C  0.45507202  0.02393007  0.16809251     0.30300
C730        C  0.45587102  0.02361000  0.13026362    -0.19200
C731        C  0.42491594  0.01616192  0.11024805    -0.28600
C732        C  0.39227286  0.01030529  0.12849594     0.44300
C733        C  0.42194272  0.00977317  0.22638094     0.05500
O734        O  0.48639950  0.02979568  0.18654919    -0.57100
H735        H  0.48105141  0.02789481  0.11640676     0.18400
O736        O  0.36143953  0.00307447  0.10961977    -0.63900
H737        H  0.36636328  0.00386345  0.17979426     0.16900
C738        C  0.43542771  0.03519930  0.25147429     0.29100
C739        C  0.43270814  0.02879199  0.28870364    -0.24700
C740        C  0.41524582  0.99799902  0.30150855    -0.24000
C741        C  0.40197229  0.97259149  0.27658059     0.40600
C742        C  0.40590755  0.97825180  0.23951376    -0.26500
O743        O  0.44988703  0.06705846  0.24010437    -0.58400
H744        H  0.44242549  0.04891993  0.30761079     0.16200
O745        O  0.38533559  0.94190361  0.28827383    -0.59800
H746        H  0.39574931  0.95810535  0.22086552     0.14700
H747        H  0.35196236  0.02699401  0.10221907     0.46500
H748        H  0.42902198  0.08358461  0.23679053     0.41900
H749        H  0.35916495  0.94716752  0.28659410     0.45300
H750        H  0.49334334  0.05495953  0.18109415     0.36800
C751        C  0.39442783  0.98903432  0.78922580    -0.27400
C752        C  0.42517430  0.97901674  0.76911784     0.02200
C753        C  0.45781560  0.97293878  0.78735326     0.30300
C754        C  0.45970405  0.97827777  0.82471266    -0.19200
C755        C  0.42905907  0.98826317  0.84478412    -0.28600
C756        C  0.39604580  0.99294272  0.82678330     0.44300
C757        C  0.42309741  0.97657767  0.72912850     0.05500
O758        O  0.48790325  0.96140494  0.76892094    -0.57100
H759        H  0.48504636  0.97390627  0.83826287     0.18400
O760        O  0.36541107  0.00218678  0.84560886    -0.63900
H761        H  0.36912991  0.99432798  0.77574152     0.16900
C762        C  0.39555459  0.95697908  0.71207304     0.29100
C763        C  0.39161166  0.95847605  0.67458237    -0.24700
C764        C  0.41476168  0.97938534  0.65342864    -0.24000
C765        C  0.44333519  0.99766311  0.67023984     0.40600
C766        C  0.44738327  0.99609227  0.70779896    -0.26500
O767        O  0.37263237  0.93599210  0.73183642    -0.58400
H768        H  0.36976234  0.94382845  0.66205919     0.16200
O769        O  0.46618008  0.01876710  0.65059353    -0.59800
H770        H  0.46857359  0.01157309  0.72045104     0.14700
H771        H  0.35507468  0.97894104  0.85343238     0.46500
H772        H  0.34885558  0.94836713  0.73084724     0.41900
H773        H  0.45408521  0.04271297  0.64934288     0.45300
H774        H  0.48926910  0.93500153  0.77297132     0.36800
C775        C  0.18557515  0.97721565  0.56782574    -0.27400
C776        C  0.20738989  0.99754957  0.54477046     0.02200
C777        C  0.19096801  0.01929005  0.51848702     0.30300
C778        C  0.15339519  0.02049252  0.51561749    -0.19200
C779        C  0.13151119  0.00077562  0.53904930    -0.28600
C780        C  0.14802318  0.97914398  0.56552528     0.44300
C781        C  0.24696516  0.99780750  0.55029889     0.05500
O782        O  0.21136057  0.04014002  0.49608847    -0.57100
H783        H  0.14126395  0.03741293  0.49549064     0.18400
O784        O  0.12765631  0.95982303  0.58934934    -0.63900
H785        H  0.19775381  0.96029250  0.58820972     0.16900
C786        C  0.26105041  0.00684773  0.58433746     0.29100
C787        C  0.29815280  0.00596452  0.59000268    -0.24700
C788        C  0.32225981  0.99638165  0.56205265    -0.24000
C789        C  0.30823502  0.98821853  0.52759451     0.40600
C790        C  0.27084020  0.98902880  0.52195638    -0.26500
O791        O  0.23870537  0.01656823  0.61242513    -0.58400
H792        H  0.30804861  0.01280782  0.61664521     0.16200
O793        O  0.33057411  0.97857580  0.49951365    -0.59800
H794        H  0.26044260  0.98200454  0.49562273     0.14700
H795        H  0.12174891  0.97697732  0.60925643     0.46500
H796        H  0.23239517  0.04226689  0.60824779     0.41900
H797        H  0.33482543  0.95226422  0.50218353     0.45300
H798        H  0.21086192  0.06462284  0.50715607     0.36800
C799        C  0.45483194  0.73084537  0.98402857    -0.27400
C800        C  0.42827165  0.75430668  0.99806784     0.02200
C801        C  0.39634613  0.73963721  0.01185334     0.30300
C802        C  0.39048333  0.70246875  0.00960702    -0.19200
C803        C  0.41622086  0.67899169  0.99385378    -0.28600
C804        C  0.44906092  0.69348065  0.98176764     0.44300
C805        C  0.43208086  0.79406331  0.99502590     0.05500
O806        O  0.37014246  0.76163997  0.02657684    -0.57100
H807        H  0.36523496  0.69212197  0.01969424     0.18400
O808        O  0.47497023  0.67174608  0.96617722    -0.63900
H809        H  0.47933632  0.74159731  0.97308601     0.16900
C810        C  0.46036742  0.81292134  0.01172605     0.29100
C811        C  0.46209607  0.85073897  0.00885888    -0.24700
C812        C  0.43598848  0.86999975  0.98927927    -0.24000
C813        C  0.40776523  0.85095282  0.97275447     0.40600
C814        C  0.40619263  0.81341168  0.97538971    -0.26500
O815        O  0.48506218  0.79478161  0.03244726    -0.58400
H816        H  0.48376145  0.86511334  0.02200975     0.16200
O817        O  0.38151845  0.86890208  0.95389985    -0.59800
H818        H  0.38438341  0.79927256  0.96223300     0.14700
H819        H  0.47079718  0.67333097  0.93982285     0.46500
H820        H  0.50901252  0.80058792  0.02228914     0.41900
H821        H  0.36262522  0.87500158  0.97198003     0.45300
H822        H  0.37479870  0.76166340  0.05290878     0.36800
C823        C  0.19027043  0.55894506  0.96141541    -0.27400
C824        C  0.20775697  0.58231027  0.98540123     0.02200
C825        C  0.18695272  0.60512844  0.00811520     0.30300
C826        C  0.14922014  0.60400119  0.00674320    -0.19200
C827        C  0.13171336  0.58033678  0.98282933    -0.28600
C828        C  0.15268580  0.55789169  0.95999551     0.44300
C829        C  0.24764289  0.58361405  0.98490120     0.05500
O830        O  0.20317102  0.62892920  0.03135598    -0.57100
H831        H  0.13352371  0.62172701  0.02425252     0.18400
O832        O  0.13654432  0.53405748  0.93687197    -0.63900
H833        H  0.20588334  0.54117604  0.94385537     0.16900
C834        C  0.26830503  0.57624407  0.01585647     0.29100
C835        C  0.30598712  0.57850219  0.01429368    -0.24700
C836        C  0.32331570  0.58784955  0.98209475    -0.24000
C837        C  0.30278065  0.59446376  0.95108621     0.40600
C838        C  0.26525656  0.59210656  0.95254280    -0.26500
O839        O  0.25187245  0.56767878  0.04781816    -0.58400
H840        H  0.32161464  0.57405359  0.03851306     0.16200
O841        O  0.31910959  0.60480751  0.91964892    -0.59800
H842        H  0.24973824  0.59786151  0.92853221     0.14700
H843        H  0.14136652  0.54322452  0.91228521     0.46500
H844        H  0.25823689  0.54201555  0.05211185     0.41900
H845        H  0.32366483  0.58204152  0.90601695     0.45300
H846        H  0.21020843  0.64968873  0.01626500     0.36800
C847        C  0.39061375  0.19251058  0.97825156    -0.27400
C848        C  0.41761983  0.21203630  0.96059373     0.02200
C849        C  0.44639024  0.19300016  0.94410158     0.30300
C850        C  0.44818476  0.15514332  0.94623318    -0.19200
C851        C  0.42173002  0.13581661  0.96490568    -0.28600
C852        C  0.39225097  0.15481405  0.98002925     0.44300
C853        C  0.41541083  0.25221700  0.96032606     0.05500
O854        O  0.47182286  0.21112638  0.92455846    -0.57100
H855        H  0.47058977  0.14080450  0.93368684     0.18400
O856        O  0.36512069  0.13675001  0.99711005    -0.63900
H857        H  0.36825223  0.20662804  0.99108879     0.16900
C858        C  0.38371374  0.26999167  0.94923365     0.29100
C859        C  0.38012646  0.30739526  0.95359682    -0.24700
C860        C  0.40796756  0.32816889  0.96864134    -0.24000
C861        C  0.44048652  0.31062065  0.97798772     0.40600
C862        C  0.44395884  0.27296476  0.97382515    -0.26500
O863        O  0.35562932  0.25092477  0.93483802    -0.58400
H864        H  0.35506129  0.32012289  0.94555520     0.16200
O865        O  0.46847097  0.32964182  0.99258337    -0.59800
H866        H  0.46843521  0.25975280  0.98273506     0.14700
H867        H  0.34934720  0.12784721  0.97747618     0.46500
H868        H  0.36239740  0.24638315  0.90927429     0.41900
H869        H  0.46552082  0.32753922  0.01908400     0.45300
H870        H  0.49545474  0.20352351  0.93440026     0.36800
C871        C  0.18591811  0.42690631  0.95795230    -0.27400
C872        C  0.20588760  0.44778538  0.98249382     0.02200
C873        C  0.18788701  0.47345894  0.00433363     0.30300
C874        C  0.15040537  0.47741536  0.00193160    -0.19200
C875        C  0.13027884  0.45574238  0.97832152    -0.28600
C876        C  0.14838528  0.43026986  0.95620509     0.44300
C877        C  0.24504284  0.44058818  0.98674008     0.05500
O878        O  0.20633387  0.49228280  0.03030431    -0.57100
H879        H  0.13671387  0.49624815  0.01986275     0.18400
O880        O  0.12956656  0.40748046  0.93397417    -0.63900
H881        H  0.19941289  0.40698056  0.94097149     0.16900
C882        C  0.25737708  0.40579526  0.99556800     0.29100
C883        C  0.29429115  0.39839115  0.99716771    -0.24700
C884        C  0.31988112  0.42514023  0.98972651    -0.24000
C885        C  0.30747644  0.46053455  0.98243581     0.40600
C886        C  0.27028252  0.46804155  0.98120238    -0.26500
O887        O  0.23342529  0.37895960  0.00339079    -0.58400
H888        H  0.30284292  0.37118464  0.00369417     0.16200
O889        O  0.33123536  0.48770243  0.97540187    -0.59800
H890        H  0.26113395  0.49508243  0.97472336     0.14700
H891        H  0.12126819  0.38771247  0.94973574     0.46500
H892        H  0.23322383  0.36302612  0.98173011     0.41900
H893        H  0.33306580  0.48858458  0.94872163     0.45300
H894        H  0.20143106  0.51813477  0.02558824     0.36800
loop_ 
_geom_bond_atom_site_label_1 
_geom_bond_atom_site_label_2 
_geom_bond_distance 
_geom_bond_site_symmetry_2 
_ccdc_geom_bond_type 
O1            V9   1.913       .  S
O1           C11   1.266   1_554  A
O2            V9   1.917       .  S
O2           C12   1.268   1_554  A
O3            V9   1.898       .  S
O3           C13   1.262   1_554  A
O4            V9   1.892       .  S
O4           C14   1.260   1_554  A
O5           V10   1.916       .  S
O5           C14   1.268       .  A
O6           V10   1.916       .  S
O6           C13   1.267       .  A
O7           V10   1.901       .  S
O7           C12   1.262       .  A
O8           V10   1.900       .  S
O8           C11   1.263       .  A
V9           V10   2.088   1_554  T
C11         C201   1.469       .  S
C12          C45   1.472       .  S
C13         C103   1.470       .  S
C14          C53   1.466       .  S
O15          V23   1.904       .  S
O15          C25   1.263   1_545  A
O16          V23   1.902       .  S
O16          C26   1.263   1_545  A
O17          V23   1.907       .  S
O17          C27   1.265   1_545  A
O18          V23   1.910       .  S
O18          C28   1.265   1_545  A
O19          V24   1.902       .  S
O19          C28   1.263       .  A
O20          V24   1.902       .  S
O20          C27   1.263       .  A
O21          V24   1.905       .  S
O21          C26   1.264       .  A
O22          V24   1.904       .  S
O22          C25   1.265       .  A
V23          V24   2.088   1_545  T
C25          C99   1.466       .  S
C26         C213   1.464       .  S
C27         C163   1.466       .  S
C28          C57   1.468       .  S
O29          V37   1.909       .  S
O29          C39   1.266       .  A
O30          V37   1.913       .  S
O30          C40   1.267       .  A
O31          V37   1.906       .  S
O31          C41   1.264       .  A
O32          V37   1.898       .  S
O32          C42   1.263   1_455  A
O33          V38   1.907       .  S
O33          C42   1.265       .  A
O34          V38   1.907       .  S
O34          C41   1.265   1_655  A
O35          V38   1.903       .  S
O35          C40   1.263   1_655  A
O36          V38   1.900       .  S
O36          C39   1.263   1_655  A
V37          V38   2.083   1_455  T
C39         C157   1.465       .  S
C40         C111   1.470       .  S
C41         C151   1.468       .  S
C42         C209   1.462       .  S
C43         C884   1.492       .  S
C43          N44   1.363       .  A
C43          N48   1.356       .  A
N44          C45   1.365       .  A
C45          N46   1.364       .  A
N46          C47   1.362       .  A
C47         C860   1.491       .  S
C47          N48   1.355       .  A
C49         C836   1.468       .  S
C49          N50   1.353       .  A
C49          N54   1.359       .  A
N50          C51   1.356       .  A
C51         C803   1.487       .  S
C51          N52   1.362       .  A
N52          C53   1.363       .  A
C53          N54   1.361       .  A
C55         C788   1.487       .  S
C55          N56   1.362       .  A
C55          N60   1.355       .  A
N56          C57   1.363       .  A
C57          N58   1.362       .  A
N58          C59   1.360       .  A
C59         C764   1.479       .  S
C59          N60   1.353       .  A
N61          C66   1.354       .  A
N61          C65   1.354       .  A
N61          H93   1.031       .  S
N62          C69   1.354       .  A
N62          C70   1.354       .  A
N63          C68   1.355       .  A
N63          C67   1.355       .  A
N63          H94   1.031   1_554  S
N64          C71   1.354       .  A
N64          C72   1.353       .  A
C65          C73   1.389       .  A
C65          C81   1.422       .  A
C66          C82   1.421       .  A
C66          C74   1.386       .  A
C67          C75   1.388       .  A
C67          C84   1.426   1_554  A
C68          C83   1.420       .  A
C68          C76   1.386       .  A
C69          C81   1.422   1_545  A
C69          C77   1.387       .  A
C70          C84   1.421       .  A
C70          C78   1.387       .  A
C71          C79   1.386       .  A
C71          C82   1.419   1_554  A
C72          C80   1.387       .  A
C72          C83   1.419   1_565  A
C73          C74   1.371       .  A
C73          H85   1.080       .  S
C74          H86   1.081       .  S
C75          C76   1.374       .  A
C75          H87   1.080       .  S
C76          H88   1.082       .  S
C77          C78   1.370       .  A
C77          H89   1.082       .  S
C78          H90   1.082       .  S
C79          C80   1.370       .  A
C79          H91   1.082       .  S
C80          H92   1.082       .  S
C81         C755   1.493       .  S
C82         C812   1.495       .  S
C83         C731   1.490       .  S
C84         C851   1.497       .  S
C95         C740   1.477       .  S
C95          N96   1.357       .  A
C95         N100   1.361       .  A
N96          C97   1.355       .  A
C97         C707   1.476       .  S
C97          N98   1.359       .  A
N98          C99   1.360       .  A
C99         N100   1.362       .  A
C101        C683   1.482   1_556  S
C101        N102   1.361       .  A
C101        N106   1.354   1_556  A
N102        C103   1.362       .  A
C103        N104   1.364       .  A
N104        C105   1.363   1_556  A
C105        C668   1.487       .  S
C105        N106   1.356       .  A
C107        C644   1.483   1_655  S
C107        N108   1.353       .  A
C107        N112   1.358   1_655  A
N108        C109   1.356       .  A
C109        C611   1.496       .  S
C109        N110   1.367       .  A
N110        C111   1.367   1_655  A
C111        N112   1.359       .  A
N113        C118   1.359       .  A
N113        C117   1.357       .  A
N113        H145   1.036       .  S
N114        C121   1.353       .  A
N114        C122   1.354       .  A
N115        C120   1.354       .  A
N115        C119   1.356       .  A
N115        H146   1.039       .  S
N116        C123   1.351       .  A
N116        C124   1.352       .  A
C117        C125   1.389       .  A
C117        C133   1.426       .  A
C118        C134   1.422       .  A
C118        C126   1.385       .  A
C119        C127   1.385       .  A
C119        C136   1.415       .  A
C120        C135   1.417   1_554  A
C120        C128   1.388       .  A
C121        C133   1.419   1_554  A
C121        C129   1.388       .  A
C122        C136   1.417   1_655  A
C122        C130   1.384       .  A
C123        C131   1.386       .  A
C123        C134   1.415   1_455  A
C124        C132   1.386       .  A
C124        C135   1.415       .  A
C125        C126   1.374       .  A
C125        H137   1.081       .  S
C126        H138   1.082       .  S
C127        C128   1.371       .  A
C127        H139   1.082       .  S
C128        H140   1.082       .  S
C129        C130   1.366       .  A
C129        H141   1.080       .  S
C130        H142   1.082       .  S
C131        C132   1.371       .  A
C131        H143   1.082       .  S
C132        H144   1.080       .  S
C133        C659   1.496   1_556  S
C134        C620   1.499       .  S
C135        C875   1.492       .  S
C136        C587   1.499       .  S
C147        C596   1.487       .  S
C147        N148   1.356       .  A
C147        N152   1.362       .  A
N148        C149   1.354       .  A
C149        C572   1.469       .  S
C149        N150   1.359       .  A
N150        C151   1.361       .  A
C151        N152   1.363       .  A
C153        C548   1.472       .  S
C153        N154   1.356       .  A
C153        N158   1.359       .  A
N154        C155   1.358       .  A
C155        C515   1.489   1_655  S
C155        N156   1.361   1_655  A
N156        C157   1.361       .  A
C157        N158   1.361   1_455  A
C159        C491   1.494       .  S
C159        N160   1.358       .  A
C159        N164   1.362       .  A
N160        C161   1.355       .  A
C161        C467   1.472       .  S
C161        N162   1.359       .  A
N162        C163   1.360       .  A
C163        N164   1.361       .  A
N165        C170   1.356       .  A
N165        C169   1.356       .  A
N165        H197   1.041       .  S
N166        C173   1.353       .  A
N166        C174   1.354       .  A
N167        C172   1.353       .  A
N167        C171   1.353       .  A
N167        H198   1.041       .  S
N168        C175   1.352       .  A
N168        C176   1.353       .  A
C169        C177   1.387       .  A
C169        C185   1.420       .  A
C170        C186   1.418       .  A
C170        C178   1.386       .  A
C171        C179   1.387       .  A
C171        C188   1.414   1_545  A
C172        C187   1.413   1_655  A
C172        C180   1.386       .  A
C173        C185   1.418   1_655  A
C173        C181   1.386       .  A
C174        C188   1.415       .  A
C174        C182   1.384       .  A
C175        C183   1.387       .  A
C175        C186   1.417   1_545  A
C176        C184   1.384       .  A
C176        C187   1.415       .  A
C177        C178   1.375       .  A
C177        H189   1.082       .  S
C178        H190   1.082       .  S
C179        C180   1.373       .  A
C179        H191   1.082       .  S
C180        H192   1.082       .  S
C181        C182   1.372       .  A
C181        H193   1.081       .  S
C182        H194   1.081       .  S
C183        C184   1.372       .  A
C183        H195   1.079       .  S
C184        H196   1.082       .  S
C185        C524   1.503       .  S
C186        C716   1.500       .  S
C187        C563   1.497       .  S
C188        C476   1.498       .  S
C199        C419   1.473       .  S
C199        N200   1.358       .  A
C199        N204   1.356       .  A
N200        C201   1.360       .  A
C201        N202   1.363       .  A
N202        C203   1.363       .  A
C203        C452   1.485       .  S
C203        N204   1.358       .  A
C205        C371   1.465   1_655  S
C205        N206   1.353       .  A
C205        N210   1.356       .  A
N206        C207   1.355       .  A
C207        C404   1.472       .  S
C207        N208   1.361       .  A
N208        C209   1.363       .  A
C209        N210   1.359       .  A
C211        C323   1.494       .  S
C211        N212   1.363       .  A
C211        N216   1.360       .  A
N212        C213   1.362       .  A
C213        N214   1.358       .  A
N214        C215   1.356       .  A
C215        C356   1.469       .  S
C215        N216   1.356       .  A
N217        C222   1.354       .  A
N217        C221   1.356       .  A
N217        H249   1.033       .  S
N218        C225   1.356       .  A
N218        C226   1.355       .  A
N219        C224   1.358       .  A
N219        C223   1.356       .  A
N219        H250   1.033       .  S
N220        C227   1.354       .  A
N220        C228   1.355       .  A
C221        C229   1.388       .  A
C221        C237   1.421       .  A
C222        C238   1.421   1_565  A
C222        C230   1.387       .  A
C223        C231   1.388       .  A
C223        C240   1.426   1_545  A
C224        C239   1.423   1_554  A
C224        C232   1.386       .  A
C225        C237   1.420   1_554  A
C225        C233   1.386       .  A
C226        C240   1.422       .  A
C226        C234   1.387       .  A
C227        C235   1.385       .  A
C227        C238   1.418       .  A
C228        C236   1.387       .  A
C228        C239   1.420       .  A
C229        C230   1.372       .  A
C229        H241   1.080       .  S
C230        H242   1.081       .  S
C231        C232   1.373       .  A
C231        H243   1.081       .  S
C232        H244   1.080       .  S
C233        C234   1.371       .  A
C233        H245   1.081       .  S
C234        H246   1.082       .  S
C235        C236   1.372       .  A
C235        H247   1.082       .  S
C236        H248   1.082       .  S
C237        C443   1.498       .  S
C238        C347   1.495       .  S
C239        C692   1.500       .  S
C240        C500   1.503       .  S
N251        C256   1.354       .  A
N251        C255   1.353       .  A
N251        H283   1.036       .  S
N252        C259   1.355       .  A
N252        C260   1.353       .  A
N253        C258   1.355       .  A
N253        C257   1.353       .  A
N253        H284   1.036       .  S
N254        C261   1.354       .  A
N254        C262   1.354       .  A
C255        C263   1.384       .  A
C255        C271   1.414   1_565  A
C256        C272   1.418   1_455  A
C256        C264   1.385       .  A
C257        C265   1.387       .  A
C257        C274   1.418       .  A
C258        C273   1.420       .  A
C258        C266   1.387       .  A
C259        C271   1.416       .  A
C259        C267   1.385       .  A
C260        C274   1.419   1_455  A
C260        C268   1.388       .  A
C261        C269   1.386       .  A
C261        C272   1.418       .  A
C262        C270   1.386       .  A
C262        C273   1.417   1_565  A
C263        C264   1.368       .  A
C263        H275   1.080       .  S
C264        H276   1.075       .  S
C265        C266   1.376       .  A
C265        H277   1.082       .  S
C266        H278   1.081       .  S
C267        C268   1.371       .  A
C267        H279   1.082       .  S
C268        H280   1.082       .  S
C269        C270   1.371       .  A
C269        H281   1.082       .  S
C270        H282   1.082       .  S
C271        C779   1.497       .  S
C272        C395   1.500   1_655  S
C273        C332   1.499       .  S
C274        C635   1.493       .  S
N285        C290   1.354       .  A
N285        C289   1.354       .  A
N285        H317   1.033       .  S
N286        C293   1.352       .  A
N286        C294   1.352       .  A
N287        C292   1.355       .  A
N287        C291   1.356       .  A
N287        H318   1.036       .  S
N288        C295   1.356       .  A
N288        C296   1.356       .  A
C289        C297   1.384       .  A
C289        C305   1.419   1_655  A
C290        C306   1.422       .  A
C290        C298   1.390       .  A
C291        C299   1.385       .  A
C291        C308   1.419   1_554  A
C292        C307   1.422   1_455  A
C292        C300   1.386       .  A
C293        C305   1.415       .  A
C293        C301   1.386       .  A
C294        C308   1.414       .  A
C294        C302   1.386       .  A
C295        C303   1.388       .  A
C295        C306   1.425   1_554  A
C296        C304   1.385       .  A
C296        C307   1.421       .  A
C297        C298   1.369       .  A
C297        H309   1.081       .  S
C298        H310   1.079       .  S
C299        C300   1.372       .  A
C299        H311   1.081       .  S
C300        H312   1.076       .  S
C301        C302   1.371       .  A
C301        H313   1.082       .  S
C302        H314   1.082       .  S
C303        C304   1.370       .  A
C303        H315   1.081       .  S
C304        H316   1.082       .  S
C305        C380   1.494       .  S
C306        C428   1.499       .  S
C307        C539   1.503       .  S
C308        C827   1.497       .  S
C319        C320   1.404   1_545  A
C319        C324   1.406       .  A
C319        H329   1.083       .  S
C320        C325   1.486       .  S
C320        C321   1.406       .  A
C321        C322   1.400       .  A
C321        O326   1.372       .  S
C322        C323   1.409       .  A
C322        H327   1.083       .  S
C323        C324   1.415   1_565  A
C324        O328   1.371       .  S
C325        C330   1.407       .  A
C325        C334   1.404   1_565  A
O326        H342   0.992       .  S
O328        H339   0.991   1_545  S
C330        C331   1.402       .  A
C330        O335   1.371       .  S
C331        C332   1.406   1_565  A
C331        H336   1.082       .  S
C332        C333   1.411       .  A
C333        C334   1.402       .  A
C333        O337   1.372       .  S
C334        H338   1.084       .  S
O335        H340   0.989       .  S
O337        H341   0.992       .  S
C343        C344   1.406       .  A
C343        C348   1.403       .  A
C343        H353   1.083       .  S
C344        C349   1.487       .  S
C344        C345   1.409   1_545  A
C345        C346   1.400       .  A
C345        O350   1.373       .  S
C346        C347   1.404   1_565  A
C346        H351   1.084       .  S
C347        C348   1.413       .  A
C348        O352   1.374       .  S
C349        C354   1.412   1_545  A
C349        C358   1.405       .  A
O350        H366   0.992       .  S
O352        H363   0.990       .  S
C354        C355   1.402       .  A
C354        O359   1.372       .  S
C355        C356   1.399       .  A
C355        H360   1.084       .  S
C356        C357   1.405   1_565  A
C357        C358   1.401       .  A
C357        O361   1.371       .  S
C358        H362   1.083       .  S
O359        H364   0.992       .  S
O361        H365   0.992       .  S
C367        C368   1.404       .  A
C367        C372   1.400       .  A
C367        H377   1.083       .  S
C368        C373   1.481       .  S
C368        C369   1.410   1_455  A
C369        C370   1.401       .  A
C369        O374   1.372       .  S
C370        C371   1.398   1_655  A
C370        H375   1.084       .  S
C371        C372   1.406       .  A
C372        O376   1.372       .  S
C373        C378   1.407       .  A
C373        C382   1.403   1_455  A
O374        H390   0.992       .  S
O376        H387   0.992       .  S
C378        C379   1.399       .  A
C378        O383   1.370       .  S
C379        C380   1.404       .  A
C379        H384   1.083       .  S
C380        C381   1.411   1_455  A
C381        C382   1.400       .  A
C381        O385   1.372       .  S
C382        H386   1.084       .  S
O383        H388   0.992       .  S
O385        H389   0.992       .  S
C391        C392   1.404       .  A
C391        C396   1.403       .  A
C391        H401   1.084       .  S
C392        C397   1.478   1_455  S
C392        C393   1.403   1_455  A
C393        C394   1.399       .  A
C393        O398   1.372       .  S
C394        C395   1.404   1_655  A
C394        H399   1.077       .  S
C395        C396   1.414       .  A
C396        O400   1.372       .  S
C397        C402   1.407   1_655  A
C397        C406   1.402       .  A
O398        H414   0.991       .  S
O400        H411   0.992       .  S
C402        C403   1.405       .  A
C402        O407   1.372       .  S
C403        C404   1.403   1_455  A
C403        H408   1.084       .  S
C404        C405   1.407       .  A
C405        C406   1.398       .  A
C405        O409   1.372       .  S
C406        H410   1.084       .  S
O407        H412   0.991       .  S
O409        H413   0.992       .  S
C415        C416   1.402       .  A
C415        C420   1.402       .  A
C415        H425   1.084       .  S
C416        C421   1.478       .  S
C416        C417   1.408       .  A
C417        C418   1.404       .  A
C417        O422   1.372   1_556  S
C418        C419   1.401       .  A
C418        H423   1.084   1_556  S
C419        C420   1.408       .  A
C420        O424   1.372       .  S
C421        C426   1.405       .  A
C421        C430   1.401       .  A
O422        H438   0.992       .  S
O424        H435   0.992       .  S
C426        C427   1.405       .  A
C426        O431   1.374       .  S
C427        C428   1.408       .  A
C427        H432   1.083       .  S
C428        C429   1.410       .  A
C429        C430   1.400       .  A
C429        O433   1.372       .  S
C430        H434   1.084       .  S
O431        H436   0.991       .  S
O433        H437   0.992       .  S
C439        C440   1.404       .  A
C439        C444   1.403       .  A
C439        H449   1.083       .  S
C440        C445   1.487       .  S
C440        C441   1.407       .  A
C441        C442   1.401       .  A
C441        O446   1.369       .  S
C442        C443   1.403       .  A
C442        H447   1.080       .  S
C443        C444   1.411       .  A
C444        O448   1.371       .  S
C445        C450   1.407       .  A
C445        C454   1.405       .  A
O446        H462   0.992       .  S
O448        H459   0.992       .  S
C450        C451   1.402       .  A
C450        O455   1.371       .  S
C451        C452   1.407       .  A
C451        H456   1.084       .  S
C452        C453   1.410       .  A
C453        C454   1.404       .  A
C453        O457   1.372   1_556  S
C454        H458   1.081   1_556  S
O455        H460   0.992       .  S
O457        H461   0.992       .  S
C463        C464   1.405       .  A
C463        C468   1.401       .  A
C463        H473   1.083       .  S
C464        C469   1.485       .  S
C464        C465   1.409   1_565  A
C465        C466   1.404       .  A
C465        O470   1.372       .  S
C466        C467   1.402   1_545  A
C466        H471   1.084       .  S
C467        C468   1.405       .  A
C468        O472   1.371       .  S
C469        C474   1.408   1_565  A
C469        C478   1.404       .  A
O470        H486   0.992       .  S
O472        H483   0.991       .  S
C474        C475   1.403       .  A
C474        O479   1.372       .  S
C475        C476   1.406   1_545  A
C475        H480   1.081       .  S
C476        C477   1.411       .  A
C477        C478   1.400       .  A
C477        O481   1.372       .  S
C478        H482   1.084       .  S
O479        H484   0.991       .  S
O481        H485   0.992       .  S
C487        C488   1.403       .  A
C487        C492   1.398       .  A
C487        H497   1.084       .  S
C488        C493   1.493       .  S
C488        C489   1.410       .  A
C489        C490   1.405       .  A
C489        O494   1.369       .  S
C490        C491   1.409       .  A
C490        H495   1.083       .  S
C491        C492   1.415       .  A
C492        O496   1.372       .  S
C493        C498   1.411   1_565  A
C493        C502   1.407       .  A
O494        H510   0.992       .  S
O496        H507   0.992   1_565  S
C498        C499   1.396       .  A
C498        O503   1.372       .  S
C499        C500   1.404   1_545  A
C499        H504   1.084       .  S
C500        C501   1.414       .  A
C501        C502   1.409       .  A
C501        O505   1.373       .  S
C502        H506   1.083       .  S
O503        H508   0.992       .  S
O505        H509   0.991       .  S
C511        C512   1.403   1_655  A
C511        C516   1.404       .  A
C511        H521   1.084       .  S
C512        C517   1.480   1_455  S
C512        C513   1.404       .  A
C513        C514   1.399       .  A
C513        O518   1.372       .  S
C514        C515   1.408       .  A
C514        H519   1.083       .  S
C515        C516   1.414   1_455  A
C516        O520   1.371       .  S
C517        C522   1.406       .  A
C517        C526   1.398   1_655  A
O518        H534   0.992   1_455  S
O520        H531   0.992       .  S
C522        C523   1.401       .  A
C522        O527   1.371       .  S
C523        C524   1.408   1_655  A
C523        H528   1.083       .  S
C524        C525   1.413       .  A
C525        C526   1.403       .  A
C525        O529   1.370       .  S
C526        H530   1.082       .  S
O527        H532   0.992       .  S
O529        H533   0.992       .  S
C535        C536   1.404   1_455  A
C535        C540   1.400       .  A
C535        H545   1.084       .  S
C536        C541   1.485       .  S
C536        C537   1.407       .  A
C537        C538   1.405       .  A
C537        O542   1.372       .  S
C538        C539   1.407       .  A
C538        H543   1.078       .  S
C539        C540   1.411   1_655  A
C540        O544   1.371       .  S
C541        C546   1.409   1_655  A
C541        C550   1.405       .  A
O542        H558   0.991       .  S
O544        H555   0.992       .  S
C546        C547   1.402       .  A
C546        O551   1.372       .  S
C547        C548   1.400   1_455  A
C547        H552   1.084       .  S
C548        C549   1.407       .  A
C549        C550   1.403       .  A
C549        O553   1.371       .  S
C550        H554   1.083       .  S
O551        H556   0.991       .  S
O553        H557   0.992       .  S
C559        C560   1.405       .  A
C559        C564   1.401       .  A
C559        H569   1.083       .  S
C560        C565   1.487       .  S
C560        C561   1.409   1_455  A
C561        C562   1.402       .  A
C561        O566   1.373       .  S
C562        C563   1.404   1_655  A
C562        H567   1.081       .  S
C563        C564   1.410       .  A
C564        O568   1.372       .  S
C565        C570   1.412       .  A
C565        C574   1.406   1_455  A
O566        H582   0.991       .  S
O568        H579   0.992       .  S
C570        C571   1.403       .  A
C570        O575   1.374       .  S
C571        C572   1.399       .  A
C571        H576   1.084       .  S
C572        C573   1.406   1_455  A
C573        C574   1.401       .  A
C573        O577   1.372       .  S
C574        H578   1.083       .  S
O575        H580   0.992       .  S
O577        H581   0.992       .  S
C583        C584   1.400       .  A
C583        C588   1.404       .  A
C583        H593   1.082       .  S
C584        C589   1.481       .  S
C584        C585   1.408   1_455  A
C585        C586   1.401       .  A
C585        O590   1.372       .  S
C586        C587   1.405   1_655  A
C586        H591   1.084       .  S
C587        C588   1.410       .  A
C588        O592   1.371       .  S
C589        C594   1.405       .  A
C589        C598   1.405       .  A
O590        H606   0.992       .  S
O592        H603   0.991       .  S
C594        C595   1.397       .  A
C594        O599   1.372       .  S
C595        C596   1.408       .  A
C595        H600   1.083       .  S
C596        C597   1.412       .  A
C597        C598   1.405       .  A
C597        O601   1.371   1_455  S
C598        H602   1.084   1_455  S
O599        H604   0.992       .  S
O601        H605   0.992   1_655  S
C607        C608   1.401       .  A
C607        C612   1.399       .  A
C607        H617   1.084       .  S
C608        C613   1.492       .  S
C608        C609   1.410       .  A
C609        C610   1.408       .  A
C609        O614   1.369   1_655  S
C610        C611   1.406       .  A
C610        H615   1.083   1_655  S
C611        C612   1.419       .  A
C612        O616   1.372       .  S
C613        C618   1.410       .  A
C613        C622   1.406   1_655  A
O614        H630   0.991       .  S
O616        H627   0.992       .  S
C618        C619   1.406       .  A
C618        O623   1.371       .  S
C619        C620   1.402       .  A
C619        H624   1.078       .  S
C620        C621   1.411   1_655  A
C621        C622   1.401       .  A
C621        O625   1.372       .  S
C622        H626   1.084       .  S
O623        H628   0.992       .  S
O625        H629   0.992       .  S
C631        C632   1.403       .  A
C631        C636   1.399       .  A
C631        H641   1.084       .  S
C632        C637   1.482       .  S
C632        C633   1.408   1_655  A
C633        C634   1.400       .  A
C633        O638   1.370       .  S
C634        C635   1.404   1_455  A
C634        H639   1.083       .  S
C635        C636   1.410       .  A
C636        O640   1.372       .  S
C637        C642   1.408       .  A
C637        C646   1.402   1_655  A
O638        H654   0.992       .  S
O640        H651   0.992       .  S
C642        C643   1.402       .  A
C642        O647   1.371       .  S
C643        C644   1.405   1_655  A
C643        H648   1.084       .  S
C644        C645   1.413       .  A
C645        C646   1.398       .  A
C645        O649   1.372       .  S
C646        H650   1.084       .  S
O647        H652   0.991       .  S
O649        H653   0.992       .  S
C655        C656   1.401       .  A
C655        C660   1.402       .  A
C655        H665   1.081       .  S
C656        C661   1.485       .  S
C656        C657   1.410   1_554  A
C657        C658   1.401       .  A
C657        O662   1.372       .  S
C658        C659   1.404   1_556  A
C658        H663   1.084       .  S
C659        C660   1.409       .  A
C660        O664   1.371       .  S
C661        C666   1.405       .  A
C661        C670   1.406   1_554  A
O662        H678   0.992   1_556  S
O664        H675   0.992       .  S
C666        C667   1.397       .  A
C666        O671   1.372       .  S
C667        C668   1.408       .  A
C667        H672   1.083       .  S
C668        C669   1.411   1_554  A
C669        C670   1.405       .  A
C669        O673   1.372       .  S
C670        H674   1.082       .  S
O671        H676   0.992       .  S
O673        H677   0.992       .  S
C679        C680   1.403   1_554  A
C679        C684   1.401       .  A
C679        H689   1.084       .  S
C680        C685   1.490       .  S
C680        C681   1.411       .  A
C681        C682   1.402       .  A
C681        O686   1.369       .  S
C682        C683   1.402   1_556  A
C682        H687   1.084       .  S
C683        C684   1.412       .  A
C684        O688   1.372       .  S
C685        C690   1.411       .  A
C685        C694   1.402   1_556  A
O686        H702   0.992       .  S
O688        H699   0.992       .  S
C690        C691   1.404       .  A
C690        O695   1.372       .  S
C691        C692   1.405       .  A
C691        H696   1.083       .  S
C692        C693   1.407       .  A
C693        C694   1.405   1_556  A
C693        O697   1.367   1_556  S
C694        H698   1.083       .  S
O695        H700   0.992       .  S
O697        H701   0.991       .  S
C703        C704   1.403   1_545  A
C703        C708   1.402       .  A
C703        H713   1.082       .  S
C704        C709   1.480       .  S
C704        C705   1.407       .  A
C705        C706   1.401       .  A
C705        O710   1.371       .  S
C706        C707   1.404       .  A
C706        H711   1.084       .  S
C707        C708   1.408   1_565  A
C708        O712   1.372       .  S
C709        C714   1.405       .  A
C709        C718   1.402   1_565  A
O710        H726   0.992       .  S
O712        H723   0.992       .  S
C714        C715   1.404       .  A
C714        O719   1.373       .  S
C715        C716   1.406       .  A
C715        H720   1.079       .  S
C716        C717   1.412   1_565  A
C717        C718   1.401       .  A
C717        O721   1.371       .  S
C718        H722   1.084       .  S
O719        H724   0.992       .  S
O721        H725   0.992       .  S
C727        C728   1.409       .  A
C727        C732   1.400       .  A
C727        H737   1.084       .  S
C728        C733   1.494       .  S
C728        C729   1.412       .  A
C729        C730   1.402       .  A
C729        O734   1.370       .  S
C730        C731   1.399       .  A
C730        H735   1.079       .  S
C731        C732   1.406       .  A
C732        O736   1.371       .  S
C733        C738   1.414       .  A
C733        C742   1.406   1_545  A
O734        H750   0.992       .  S
O736        H747   0.992       .  S
C738        C739   1.406       .  A
C738        O743   1.371       .  S
C739        C740   1.403   1_545  A
C739        H744   1.084       .  S
C740        C741   1.406       .  A
C741        C742   1.399       .  A
C741        O745   1.372       .  S
C742        H746   1.084       .  S
O743        H748   0.992       .  S
O745        H749   0.992       .  S
C751        C752   1.406       .  A
C751        C756   1.400       .  A
C751        H761   1.083       .  S
C752        C757   1.486       .  S
C752        C753   1.407       .  A
C753        C754   1.399       .  A
C753        O758   1.370       .  S
C754        C755   1.402       .  A
C754        H759   1.080       .  S
C755        C756   1.408       .  A
C756        O760   1.372   1_565  S
C757        C762   1.408       .  A
C757        C766   1.407       .  A
O758        H774   0.992       .  S
O760        H771   0.992   1_545  S
C762        C763   1.399       .  A
C762        O767   1.373       .  S
C763        C764   1.405       .  A
C763        H768   1.084       .  S
C764        C765   1.408       .  A
C765        C766   1.402       .  A
C765        O769   1.371   1_565  S
C766        H770   1.084   1_565  S
O767        H772   0.992       .  S
O769        H773   0.992       .  S
C775        C776   1.405       .  A
C775        C780   1.399       .  A
C775        H785   1.084       .  S
C776        C781   1.485       .  S
C776        C777   1.407   1_565  A
C777        C778   1.400       .  A
C777        O782   1.371       .  S
C778        C779   1.403       .  A
C778        H783   1.076       .  S
C779        C780   1.411   1_545  A
C780        O784   1.372       .  S
C781        C786   1.406   1_565  A
C781        C790   1.406       .  A
O782        H798   0.992       .  S
O784        H795   0.992       .  S
C786        C787   1.395       .  A
C786        O791   1.372       .  S
C787        C788   1.408   1_545  A
C787        H792   1.083       .  S
C788        C789   1.412       .  A
C789        C790   1.405       .  A
C789        O793   1.371       .  S
C790        H794   1.081       .  S
O791        H796   0.992       .  S
O793        H797   0.992       .  S
C799        C800   1.404       .  A
C799        C804   1.404       .  A
C799        H809   1.077       .  S
C800        C805   1.486       .  S
C800        C801   1.406   1_556  A
C801        C802   1.398       .  A
C801        O806   1.372       .  S
C802        C803   1.408   1_554  A
C802        H807   1.083       .  S
C803        C804   1.411       .  A
C804        O808   1.371       .  S
C805        C810   1.409   1_556  A
C805        C814   1.403       .  A
O806        H822   0.992       .  S
O808        H819   0.992       .  S
C810        C811   1.408       .  A
C810        O815   1.373       .  S
C811        C812   1.406   1_554  A
C811        H816   1.084       .  S
C812        C813   1.408       .  A
C813        C814   1.397       .  A
C813        O817   1.372       .  S
C814        H818   1.084       .  S
O815        H820   0.991       .  S
O817        H821   0.992       .  S
C823        C824   1.400       .  A
C823        C828   1.398       .  A
C823        H833   1.084       .  S
C824        C829   1.483       .  S
C824        C825   1.410   1_556  A
C825        C826   1.404       .  A
C825        O830   1.372       .  S
C826        C827   1.406   1_554  A
C826        H831   1.083       .  S
C827        C828   1.408       .  A
C828        O832   1.368       .  S
C829        C834   1.410   1_556  A
C829        C838   1.404       .  A
O830        H846   0.992       .  S
O832        H843   0.992       .  S
C834        C835   1.404       .  A
C834        O839   1.372       .  S
C835        C836   1.402   1_554  A
C835        H840   1.084       .  S
C836        C837   1.404       .  A
C837        C838   1.398       .  A
C837        O841   1.371       .  S
C838        H842   1.084       .  S
O839        H844   0.992       .  S
O841        H845   0.992       .  S
C847        C848   1.406       .  A
C847        C852   1.399       .  A
C847        H857   1.083       .  S
C848        C853   1.490       .  S
C848        C849   1.409       .  A
C849        C850   1.406       .  A
C849        O854   1.373       .  S
C850        C851   1.406       .  A
C850        H855   1.084       .  S
C851        C852   1.408       .  A
C852        O856   1.371       .  S
C853        C858   1.408       .  A
C853        C862   1.406       .  A
O854        H870   0.991       .  S
O856        H867   0.992       .  S
C858        C859   1.398       .  A
C858        O863   1.372       .  S
C859        C860   1.408       .  A
C859        H864   1.084       .  S
C860        C861   1.412       .  A
C861        C862   1.406       .  A
C861        O865   1.371       .  S
C862        H866   1.082       .  S
O863        H868   0.992       .  S
O865        H869   0.992   1_556  S
C871        C872   1.406       .  A
C871        C876   1.400       .  A
C871        H881   1.083       .  S
C872        C877   1.485       .  S
C872        C873   1.406   1_556  A
C873        C874   1.402       .  A
C873        O878   1.372       .  S
C874        C875   1.404   1_554  A
C874        H879   1.081       .  S
C875        C876   1.408       .  A
C876        O880   1.372       .  S
C877        C882   1.405       .  A
C877        C886   1.406       .  A
O878        H894   0.990       .  S
O880        H891   0.992       .  S
C882        C883   1.397       .  A
C882        O887   1.373   1_556  S
C883        C884   1.408       .  A
C883        H888   1.083   1_556  S
C884        C885   1.414       .  A
C885        C886   1.408       .  A
C885        O889   1.371       .  S
C886        H890   1.084       .  S
O887        H892   0.992   1_554  S
O889        H893   0.992       .  S
