geometry optimzed in LAMMPS
_audit_creation_date              2020-11-30 
_audit_creation_method            'lammps2cif' 
_symmetry_space_group_name_H-M    'P1' 
_symmetry_Int_Tables_number       1 
_symmetry_cell_setting            triclinic 
loop_ 
_symmetry_equiv_pos_as_xyz 
  x,y,z 
_cell_length_a                    60.74786995 
_cell_length_b                    60.8022720444637 
_cell_length_c                    60.82156335700205 
_cell_angle_alpha                 90.03810929311604 
_cell_angle_beta                  89.93291025432829 
_cell_angle_gamma                 90.08820804853117 
loop_ 
_atom_site_label 
_atom_site_type_symbol 
_atom_site_fract_x 
_atom_site_fract_y 
_atom_site_fract_z 
_atom_site_charge 
O1          O  0.51941342  0.47702314  0.03662977    -0.72400
O2          O  0.47259318  0.52364518  0.03221412    -0.73300
O3          O  0.47254015  0.47697205  0.03661006    -0.62000
O4          O  0.51941326  0.52364104  0.03183426    -0.70400
O5          O  0.51862887  0.52076415  0.99547843    -0.69900
O6          O  0.47358831  0.47355686  0.00042627    -0.61200
O7          O  0.47231355  0.51975406  0.99603921    -0.73700
O8          O  0.52009065  0.47448042  0.00030401    -0.72500
Cu9        Cu  0.49601084  0.50045127  0.03562933     1.04600
Cu10       Cu  0.49615718  0.49698959  0.99685767     1.04300
C11         C  0.52719104  0.46837101  0.01911854     0.93800
C12         C  0.46493271  0.52902966  0.01339714     0.93000
C13         C  0.46563864  0.46779915  0.01899599     0.85100
C14         C  0.52625430  0.52965716  0.01286466     0.91400
O15         O  0.52306992  0.01801025  0.50749710    -0.72400
O16         O  0.47548003  0.02138172  0.46198205    -0.73300
O17         O  0.47634769  0.01741589  0.50831751    -0.62000
O18         O  0.52205489  0.02193236  0.46113270    -0.70400
O19         O  0.52248557  0.98570344  0.45782345    -0.69900
O20         O  0.47703207  0.98107820  0.50511552    -0.61200
O21         O  0.47592797  0.98515548  0.45876826    -0.73700
O22         O  0.52348454  0.98172962  0.50397438    -0.72500
Cu23       Cu  0.49922520  0.02096773  0.48484013     1.04600
Cu24       Cu  0.49972525  0.98217551  0.48131324     1.04300
C25         C  0.53092618  0.99926536  0.51282387     0.93800
C26         C  0.46810735  0.00378716  0.45311401     0.93000
C27         C  0.46942226  0.99844691  0.51414276     0.85100
C28         C  0.52965178  0.00459606  0.45203881     0.91400
O29         O  0.98781631  0.47961608  0.45781016    -0.72400
O30         O  0.99221176  0.52410123  0.50630334    -0.73300
O31         O  0.99180334  0.52595501  0.45968951    -0.62000
O32         O  0.98835116  0.47764287  0.50435244    -0.70400
O33         O  0.02462569  0.47462621  0.50369963    -0.69900
O34         O  0.02811584  0.52318372  0.45895407    -0.61200
O35         O  0.02854124  0.52117984  0.50559815    -0.73700
O36         O  0.02417397  0.47680734  0.45701728    -0.72500
Cu37       Cu  0.98880144  0.50192583  0.48207675     1.04600
Cu38       Cu  0.02763244  0.49882859  0.48133294     1.04300
C39         C  0.00529167  0.47132228  0.44957108     0.93800
C40         C  0.01111017  0.52987797  0.51350641     0.93000
C41         C  0.01042376  0.53218793  0.45207702     0.85100
C42         C  0.00593755  0.46846767  0.51122593     0.91400
N43         N  0.30820158  0.25872754  0.98738599    -0.26700
N44         N  0.28728829  0.25385614  0.98394304    -0.34600
C45         C  0.28511823  0.23186907  0.98266217     0.01600
C46         C  0.30569277  0.22245801  0.98553501     0.07700
C47         C  0.31993045  0.24002418  0.98829079    -0.05400
H48         H  0.26972313  0.22341733  0.97969452     0.08300
H49         H  0.33747857  0.23926004  0.99119936     0.09500
Cu50       Cu  0.26289480  0.27756142  0.98161986     0.44200
Cu51       Cu  0.31962943  0.29050291  0.99173660     0.42000
Cu52       Cu  0.27927964  0.33432481  0.99254410     0.43900
N53         N  0.24159830  0.30416477  0.98086168    -0.34100
N54         N  0.24733741  0.32475944  0.98489487    -0.28300
C55         C  0.22924650  0.33750363  0.98405575    -0.04400
C56         C  0.21128206  0.32430414  0.97910652     0.07800
C57         C  0.21980367  0.30326549  0.97737360     0.01600
H58         H  0.22912561  0.35500544  0.98727356     0.09200
H59         H  0.21073331  0.28815918  0.97485459     0.08300
N60         N  0.31257140  0.33900067  0.99884613    -0.35500
N61         N  0.32730358  0.32306801  0.99803991    -0.27700
C62         C  0.34735898  0.33150306  0.00209167    -0.03000
C63         C  0.34522983  0.35388574  0.00598135     0.05700
C64         C  0.32287298  0.35799043  0.00361623     0.03700
H65         H  0.36235749  0.32199453  0.00153270     0.08900
H66         H  0.31463099  0.37367259  0.00515725     0.07700
N67         N  0.25420259  0.68332621  0.98898336    -0.26700
N68         N  0.24875451  0.70432429  0.98797832    -0.34600
C69         C  0.22666851  0.70607526  0.98809996     0.01600
C70         C  0.21758832  0.68514586  0.98937964     0.07700
C71         C  0.23564856  0.67113503  0.98972690    -0.05400
H72         H  0.21791210  0.72147782  0.98667174     0.08300
H73         H  0.23531320  0.65335891  0.99041601     0.09500
Cu74       Cu  0.27184906  0.72952770  0.98590145     0.44200
Cu75       Cu  0.28695894  0.67291553  0.98886331     0.42000
Cu76       Cu  0.32983705  0.71545928  0.98322259     0.43900
N77         N  0.29709263  0.75259835  0.98409176    -0.34100
N78         N  0.31826269  0.74765300  0.98314140    -0.28300
C79         C  0.33005801  0.76644804  0.98280558    -0.04400
C80         C  0.31558748  0.78406176  0.98329765     0.07800
C81         C  0.29486126  0.77458456  0.98426635     0.01600
H82         H  0.34784486  0.76723796  0.98226858     0.09200
H83         H  0.27925404  0.78302233  0.98558533     0.08300
N84         N  0.33622027  0.68200928  0.98659274    -0.35500
N85         N  0.32079379  0.66679365  0.98897830    -0.27700
C86         C  0.33054853  0.64724134  0.99240120    -0.03000
C87         C  0.35318437  0.65015265  0.99203011     0.05700
C88         C  0.35613623  0.67246191  0.98833411     0.03700
H89         H  0.32176444  0.63202858  0.99532234     0.08900
H90         H  0.37158122  0.68132953  0.98796185     0.07700
N91         N  0.25621003  0.99150408  0.66590309    -0.26700
N92         N  0.25026228  0.99585659  0.68635612    -0.34600
C93         C  0.22819301  0.99627477  0.68761910     0.01600
C94         C  0.21970907  0.99188488  0.66696989     0.07700
C95         C  0.23798360  0.98912265  0.65357042    -0.05400
H96         H  0.21907824  0.00026540  0.70237377     0.08300
H97         H  0.23803661  0.98582597  0.63608941     0.09500
Cu98       Cu  0.27212122  0.00152140  0.71169959     0.44200
Cu99       Cu  0.28885804  0.98958543  0.65566685     0.42000
Cu100      Cu  0.32974938  0.99496860  0.69857073     0.43900
N101        N  0.29703991  0.00409007  0.73459360    -0.34100
N102        N  0.31808134  0.00111186  0.72995557    -0.28300
C103        C  0.32980881  0.00236765  0.74864304    -0.04400
C104        C  0.31544924  0.00659670  0.76579855     0.07800
C105        C  0.29480254  0.00747077  0.75629820     0.01600
H106        H  0.34743157  0.00005854  0.74969903     0.09200
H107        H  0.27918681  0.00942141  0.76463831     0.08300
N108        N  0.33748724  0.99090007  0.66567235    -0.35500
N109        N  0.32263407  0.98887112  0.64992854    -0.27700
C110        C  0.33306906  0.98723665  0.63046158    -0.03000
C111        C  0.35553816  0.98856010  0.63412946     0.05700
C112        C  0.35770851  0.99073186  0.65667432     0.03700
H113        H  0.32488954  0.98586642  0.61472702     0.08900
H114        H  0.37284474  0.99221700  0.66590963     0.07700
N115        N  0.34636926  0.97969462  0.96187248    -0.36000
N116        N  0.34540553  0.02761011  0.96130396    -0.56600
N117        N  0.34773733  0.02868671  0.00884944    -0.36000
N118        N  0.34770479  0.98068258  0.00934072    -0.56600
C119        C  0.34089828  0.98328386  0.94062050     0.27600
C120        C  0.34179778  0.95835719  0.96641698     0.27600
C121        C  0.34160536  0.04967802  0.00468771     0.27600
C122        C  0.34300587  0.02465425  0.03021144     0.27600
C123        C  0.34707127  0.02395747  0.93945615     0.36200
C124        C  0.34729220  0.04958014  0.96421200     0.36200
C125        C  0.35031219  0.95883991  0.00638369     0.36200
C126        C  0.35127663  0.98455658  0.03086962     0.36200
C127        C  0.33334542  0.96377086  0.93140693    -0.21300
C128        C  0.33376539  0.94812931  0.94770705    -0.21300
C129        C  0.33340008  0.05919833  0.02372395    -0.21300
C130        C  0.33433594  0.04342511  0.03984762    -0.21300
C131        C  0.35004065  0.04377042  0.92849273    -0.22400
C132        C  0.35037464  0.05993799  0.94418176    -0.22400
C133        C  0.35576096  0.94879388  0.02607555    -0.22400
C134        C  0.35637248  0.96512094  0.04162907    -0.22400
C135        C  0.34339481  0.00342378  0.92908436    -0.17700
C136        C  0.34549420  0.94759682  0.98671171    -0.17700
C137        C  0.34685653  0.00468617  0.04141886    -0.17700
C138        C  0.34359540  0.06063537  0.98428780    -0.17700
H139        H  0.32814556  0.96091213  0.91464787     0.15200
H140        H  0.32889142  0.93109354  0.94589805     0.15200
H141        H  0.32723502  0.07576468  0.02578570     0.15200
H142        H  0.32908590  0.04553465  0.05672802     0.15200
H143        H  0.35105002  0.04652209  0.91095650     0.13500
H144        H  0.35182159  0.07741161  0.94109759     0.13500
H145        H  0.35831366  0.93143456  0.02905022     0.13500
H146        H  0.35936771  0.96282311  0.05901588     0.13500
H147        H  0.35478258  0.99063670  0.97200716     0.26700
H148        H  0.35634167  0.01841959  0.99839689     0.26700
N149        N  0.31670261  0.01528327  0.23937002    -0.26700
N150        N  0.29619453  0.01061615  0.23386007    -0.34600
C151        C  0.29513391  0.00737421  0.21205550     0.01600
C152        C  0.31595752  0.01041979  0.20346940     0.07700
C153        C  0.32927306  0.01536574  0.22119290    -0.05400
H154        H  0.28028016  0.00333639  0.20311128     0.08300
H155        H  0.34683442  0.01834814  0.22097672     0.09500
Cu156      Cu  0.27068864  0.00921025  0.25613915     0.44200
Cu157      Cu  0.32670729  0.01967413  0.27143159     0.42000
Cu158      Cu  0.28474512  0.01313166  0.31364353     0.43900
N159        N  0.24775990  0.00934125  0.28109637    -0.34100
N160        N  0.25280911  0.01054797  0.30218739    -0.28300
C161        C  0.23417258  0.00983042  0.31408779    -0.04400
C162        C  0.21661249  0.00806069  0.29972130     0.07800
C163        C  0.22581375  0.00800230  0.27895333     0.01600
H164        H  0.23348197  0.01081621  0.33183469     0.09200
H165        H  0.21722533  0.00680066  0.26342297     0.08300
N166        N  0.31812470  0.01521045  0.31999740    -0.35500
N167        N  0.33323857  0.01811500  0.30463565    -0.27700
C168        C  0.35322130  0.01821939  0.31399970    -0.03000
C169        C  0.35066998  0.01487049  0.33636899     0.05700
C170        C  0.32813534  0.01327055  0.33958145     0.03700
H171        H  0.36840507  0.02059602  0.30502681     0.08900
H172        H  0.31962163  0.01038436  0.35494537     0.07700
N173        N  0.67346484  0.25351966  0.99175259    -0.26700
N174        N  0.69245221  0.24875875  0.98226304    -0.34600
C175        C  0.69336007  0.22702595  0.97846966     0.01600
C176        C  0.67405658  0.21760321  0.98600487     0.07700
C177        C  0.66184960  0.23482742  0.99451193    -0.05400
H178        H  0.70726483  0.21862718  0.97118697     0.08300
H179        H  0.64566676  0.23388949  0.00190060     0.09500
Cu180      Cu  0.71710785  0.27159171  0.97664513     0.44200
Cu181      Cu  0.66461418  0.28538781  0.00003241     0.42000
Cu182      Cu  0.70764982  0.32674335  0.99769096     0.43900
N183        N  0.74112031  0.29571041  0.97815756    -0.34100
N184        N  0.73780539  0.31552758  0.98647694    -0.28300
C185        C  0.75703522  0.32643594  0.98699117    -0.04400
C186        C  0.77319703  0.31292206  0.97842626     0.07800
C187        C  0.76254682  0.29353023  0.97304672     0.01600
H188        H  0.75916893  0.34285907  0.99351676     0.09200
H189        H  0.76996381  0.27855806  0.96693398     0.08300
N190        N  0.67533275  0.33360207  0.00611052    -0.35500
N191        N  0.65965872  0.31850193  0.00648297    -0.27700
C192        C  0.64033646  0.32826088  0.01086477    -0.03000
C193        C  0.64396364  0.35055969  0.01364320     0.05700
C194        C  0.66638063  0.35338395  0.01043434     0.03700
H195        H  0.62468389  0.31977585  0.01153314     0.08900
H196        H  0.67535785  0.36876164  0.01015910     0.07700
N197        N  0.00515141  0.25229311  0.66053942    -0.26700
N198        N  0.00599026  0.24631623  0.68142621    -0.34600
C199        C  0.00466546  0.22430756  0.68267819     0.01600
C200        C  0.00299356  0.21605420  0.66158325     0.07700
C201        C  0.00356945  0.23418926  0.64791547    -0.05400
H202        H  0.00518180  0.21500125  0.69782396     0.08300
H203        H  0.00257478  0.23425190  0.63015554     0.09500
Cu204      Cu  0.00915445  0.26796618  0.70749299     0.44200
Cu205      Cu  0.00531161  0.28471668  0.65017562     0.42000
Cu206      Cu  0.00697486  0.32538281  0.69355712     0.43900
N207        N  0.01142668  0.29290547  0.73054273    -0.34100
N208        N  0.01022801  0.31397056  0.72540205    -0.28300
C209        C  0.01085120  0.32598753  0.74393006    -0.04400
C210        C  0.01271509  0.31182343  0.76163800     0.07800
C211        C  0.01294800  0.29094029  0.75250465     0.01600
H212        H  0.00957820  0.34372551  0.74448122     0.09200
H213        H  0.01308399  0.27541745  0.76117922     0.08300
N214        N  0.00569681  0.33315399  0.66048996    -0.35500
N215        N  0.00513085  0.31830897  0.64462668    -0.27700
C216        C  0.00485641  0.32865989  0.62511932    -0.03000
C217        C  0.00551934  0.35112313  0.62885405     0.05700
C218        C  0.00586199  0.35334793  0.65151402     0.03700
H219        H  0.00455833  0.32041145  0.60935481     0.08900
H220        H  0.00599471  0.36847282  0.66087677     0.07700
N221        N  0.96925065  0.34512231  0.95480853    -0.36000
N222        N  0.01687058  0.34802124  0.95639620    -0.56600
N223        N  0.01442368  0.34996370  0.00416105    -0.36000
N224        N  0.96677814  0.34990675  0.00262223    -0.56600
C225        C  0.97372794  0.34684697  0.93310347     0.27600
C226        C  0.94734886  0.34777272  0.95736538     0.27600
C227        C  0.03595033  0.35456631  0.00094707     0.27600
C228        C  0.00967160  0.35492579  0.02529418     0.27600
C229        C  0.01429371  0.34165108  0.93528737     0.36200
C230        C  0.03819285  0.34436716  0.96140967     0.36200
C231        C  0.94554089  0.34490335  0.99833125     0.36200
C232        C  0.96951563  0.34712431  0.02450525     0.36200
C233        C  0.95436937  0.35057431  0.92164319    -0.21300
C234        C  0.93767765  0.35109231  0.93697690    -0.21300
C235        C  0.04499497  0.36265617  0.02026170    -0.21300
C236        C  0.02838956  0.36280441  0.03567945    -0.21300
C237        C  0.03412053  0.33426809  0.92675291    -0.22400
C238        C  0.04926865  0.33593451  0.94334480    -0.22400
C239        C  0.93458397  0.33966606  0.01765035    -0.22400
C240        C  0.94979661  0.34094880  0.03420731    -0.22400
C241        C  0.99449436  0.34313665  0.92330585    -0.17700
C242        C  0.93569145  0.34515529  0.97730261    -0.17700
C243        C  0.98949542  0.35040634  0.03593024    -0.17700
C244        C  0.04805212  0.34952135  0.98175994    -0.17700
H245        H  0.95239761  0.35213225  0.90402740     0.15200
H246        H  0.92033899  0.35315481  0.93346407     0.15200
H247        H  0.06194955  0.36733890  0.02312247     0.15200
H248        H  0.03001148  0.36764372  0.05273072     0.15200
H249        H  0.03731687  0.32818787  0.91032761     0.13500
H250        H  0.06646615  0.33144089  0.94223287     0.13500
H251        H  0.91747259  0.33506585  0.01960072     0.13500
H252        H  0.94667463  0.33751078  0.05138347     0.13500
H253        H  0.97996107  0.33949012  0.96678211     0.26700
H254        H  0.00451002  0.34088199  0.99363563     0.26700
N255        N  0.97994325  0.31947445  0.23446594    -0.26700
N256        N  0.97832551  0.29845899  0.22919418    -0.34600
C257        C  0.97695052  0.29665920  0.20719897     0.01600
C258        C  0.97753420  0.31760079  0.19812989     0.07700
C259        C  0.97956401  0.33160775  0.21600558    -0.05400
H260        H  0.97659389  0.28115280  0.19849830     0.08300
H261        H  0.98106260  0.34933484  0.21564073     0.09500
Cu262      Cu  0.97954241  0.27322863  0.25215170     0.44200
Cu263      Cu  0.98398022  0.33063322  0.26636230     0.42000
Cu264      Cu  0.98785088  0.28974666  0.30924107     0.43900
N265        N  0.98300037  0.25129344  0.27807886    -0.34100
N266        N  0.98614743  0.25724386  0.29875031    -0.28300
C267        C  0.98828590  0.23908280  0.31119283    -0.04400
C268        C  0.98621126  0.22073466  0.29777009     0.07800
C269        C  0.98302396  0.22921383  0.27685908     0.01600
H270        H  0.99167215  0.23935350  0.32863390     0.09200
H271        H  0.98081517  0.21999749  0.26179863     0.08300
N272        N  0.98924885  0.32340465  0.31504299    -0.35500
N273        N  0.98788489  0.33828873  0.29928377    -0.27700
C274        C  0.98910099  0.35847254  0.30823141    -0.03000
C275        C  0.99113579  0.35625660  0.33079699     0.05700
C276        C  0.99137759  0.33375961  0.33447897     0.03700
H277        H  0.98875645  0.37359562  0.29889071     0.08900
H278        H  0.99267605  0.32551249  0.35017984     0.07700
N279        N  0.00472176  0.68535390  0.23605173    -0.26700
N280        N  0.00440543  0.70653600  0.23119455    -0.34600
C281        C  0.00258264  0.70884959  0.20929121     0.01600
C282        C  0.00153470  0.68812348  0.19987776     0.07700
C283        C  0.00316802  0.67364416  0.21737973    -0.05400
H284        H  0.00193906  0.72450198  0.20086942     0.08300
H285        H  0.00366767  0.65588264  0.21666845     0.09500
Cu286      Cu  0.00660111  0.73142390  0.25437339     0.44200
Cu287      Cu  0.00728780  0.67303908  0.26769451     0.42000
Cu288      Cu  0.01247850  0.71429640  0.31052630     0.43900
N289        N  0.00849642  0.75325632  0.28046945    -0.34100
N290        N  0.01053527  0.74701816  0.30115600    -0.28300
C291        C  0.01053621  0.76495563  0.31412247    -0.04400
C292        C  0.00820878  0.78344001  0.30098112     0.07800
C293        C  0.00725849  0.77530371  0.27968109     0.01600
H294        H  0.01169767  0.76452314  0.33186419     0.09200
H295        H  0.00597872  0.78461483  0.26460666     0.08300
N296        N  0.01219279  0.68068330  0.31628403    -0.35500
N297        N  0.01015922  0.66555070  0.30079806    -0.27700
C298        C  0.00963888  0.64554734  0.31027595    -0.03000
C299        C  0.01115464  0.64828193  0.33283153     0.05700
C300        C  0.01298969  0.67075478  0.33597810     0.03700
H301        H  0.00767869  0.63021133  0.30145369     0.08900
H302        H  0.01464265  0.67934771  0.35146496     0.07700
N303        N  0.68038635  0.00039196  0.23643382    -0.26700
N304        N  0.70112426  0.99654115  0.23112724    -0.34600
C305        C  0.70278295  0.99501917  0.20913712     0.01600
C306        C  0.68206666  0.99789672  0.20004177     0.07700
C307        C  0.66831536  0.00147061  0.21793199    -0.05400
H308        H  0.71797948  0.99182411  0.20041905     0.08300
H309        H  0.65089542  0.00504773  0.21763411     0.09500
Cu310      Cu  0.72634247  0.99351956  0.25389172     0.44200
Cu311      Cu  0.66947944  0.00393448  0.26861458     0.42000
Cu312      Cu  0.71153428  0.99773559  0.31095298     0.43900
N313        N  0.74892816  0.99104033  0.27930961    -0.34100
N314        N  0.74352635  0.99232756  0.30031017    -0.28300
C315        C  0.76193964  0.99111863  0.31252871    -0.04400
C316        C  0.77986014  0.98889104  0.29854145     0.07800
C317        C  0.77089258  0.98904955  0.27758398     0.01600
H318        H  0.76229045  0.99235768  0.33026992     0.09200
H319        H  0.77969279  0.98885027  0.26212368     0.08300
N320        N  0.67873184  0.00469147  0.31736869    -0.35500
N321        N  0.66341439  0.00679523  0.30209835    -0.27700
C322        C  0.64386326  0.01017336  0.31193087    -0.03000
C323        C  0.64700897  0.01039085  0.33451604     0.05700
C324        C  0.66935643  0.00679547  0.33727184     0.03700
H325        H  0.62839942  0.01128790  0.30322210     0.08900
H326        H  0.67814989  0.00527952  0.35265022     0.07700
N327        N  0.02323374  0.97934403  0.33541526    -0.36000
N328        N  0.02086394  0.02708571  0.33305803    -0.56600
N329        N  0.97345676  0.02337100  0.33180022    -0.36000
N330        N  0.97581994  0.97556820  0.33660109    -0.56600
C331        C  0.04446285  0.98483985  0.33902781     0.27600
C332        C  0.02089003  0.95795363  0.34100279     0.27600
C333        C  0.97587026  0.04526875  0.33503878     0.27600
C334        C  0.95231744  0.01825503  0.33655056     0.27600
C335        C  0.04249893  0.02436570  0.32873068     0.36200
C336        C  0.01588990  0.04795512  0.32729718     0.36200
C337        C  0.98108939  0.95428063  0.33286256     0.36200
C338        C  0.95445466  0.97784741  0.33088945     0.36200
C339        C  0.05573657  0.96681260  0.34723496    -0.21300
C340        C  0.04080230  0.94982779  0.34856818    -0.21300
C341        C  0.95608390  0.05412236  0.34215856    -0.21300
C342        C  0.94119444  0.03705863  0.34308407    -0.21300
C343        C  0.05145501  0.04372500  0.32065079    -0.22400
C344        C  0.03456048  0.05867047  0.31967211    -0.22400
C345        C  0.96288415  0.94289054  0.32517294    -0.22400
C346        C  0.94599925  0.95784552  0.32388536    -0.22400
C347        C  0.05439088  0.00482599  0.33260911    -0.17700
C348        C  0.00207477  0.94500811  0.33665520    -0.17700
C349        C  0.94232102  0.99759093  0.33275216    -0.17700
C350        C  0.99490979  0.05767491  0.32988350    -0.17700
H351        H  0.07308192  0.96582059  0.35115834     0.15200
H352        H  0.04438604  0.93315591  0.35364880     0.15200
H353        H  0.95260700  0.07119214  0.34581563     0.15200
H354        H  0.92398902  0.03841605  0.34752180     0.15200
H355        H  0.06837012  0.04676387  0.31592060     0.13500
H356        H  0.03590046  0.07549256  0.31402176     0.13500
H357        H  0.96191996  0.92568203  0.32071458     0.13500
H358        H  0.92943583  0.95440298  0.31831271     0.13500
H359        H  0.01207261  0.98853697  0.32636110     0.26700
H360        H  0.98455412  0.01314535  0.32377915     0.26700
N361        N  0.74103856  0.67742799  0.99390479    -0.26700
N362        N  0.74698917  0.69829397  0.99474664    -0.34600
C363        C  0.76902422  0.69957129  0.99493360     0.01600
C364        C  0.77753069  0.67845570  0.99414203     0.07700
C365        C  0.75920547  0.66480582  0.99336361    -0.05400
H366        H  0.77816251  0.71484867  0.99538220     0.08300
H367        H  0.75894771  0.64709696  0.99182852     0.09500
Cu368      Cu  0.72507839  0.72415687  0.99401460     0.44200
Cu369      Cu  0.70840608  0.66762949  0.99358851     0.42000
Cu370      Cu  0.66730522  0.71092040  0.98908367     0.43900
N371        N  0.70068175  0.74737607  0.99009554    -0.34100
N372        N  0.67962818  0.74251041  0.98751869    -0.28300
C373        C  0.66820810  0.76119350  0.98470548    -0.04400
C374        C  0.68282908  0.77857544  0.98567139     0.07800
C375        C  0.70323271  0.76930082  0.98923116     0.01600
H376        H  0.65055478  0.76206980  0.98255051     0.09200
H377        H  0.71879811  0.77781731  0.99085192     0.08300
N378        N  0.65984961  0.67813224  0.99367130    -0.35500
N379        N  0.67477436  0.66240670  0.99519039    -0.27700
C380        C  0.66451090  0.64305539  0.99813336    -0.03000
C381        C  0.64208353  0.64682842  0.99869820     0.05700
C382        C  0.63969924  0.66923294  0.99571175     0.03700
H383        H  0.67278589  0.62740383  0.99981841     0.08900
H384        H  0.62447309  0.67837308  0.99464670     0.07700
N385        N  0.00262010  0.68035299  0.72813370    -0.26700
N386        N  0.00055914  0.70129112  0.73354540    -0.34600
C387        C  0.99559471  0.70271969  0.75504970     0.01600
C388        C  0.99446871  0.68163441  0.76362061     0.07700
C389        C  0.99916943  0.66788853  0.74606399    -0.05400
H390        H  0.99399855  0.71802855  0.76397430     0.08300
H391        H  0.00043255  0.65014355  0.74638305     0.09500
Cu392      Cu  0.00589991  0.72687727  0.71162321     0.44200
Cu393      Cu  0.01054768  0.66993022  0.69671839     0.42000
Cu394      Cu  0.01825027  0.71215265  0.65498283     0.43900
N395        N  0.01061411  0.74970739  0.68670864    -0.34100
N396        N  0.01476702  0.74439261  0.66602591    -0.28300
C397        C  0.01547722  0.76288822  0.65390269    -0.04400
C398        C  0.01155949  0.78069326  0.66759629     0.07800
C399        C  0.00877724  0.77170389  0.68831063     0.01600
H400        H  0.01851228  0.76330544  0.63637965     0.09200
H401        H  0.00495799  0.78045224  0.70333139     0.08300
N402        N  0.01888946  0.67851579  0.64852992    -0.35500
N403        N  0.01633905  0.66329261  0.66384563    -0.27700
C404        C  0.01658213  0.64332712  0.65436398    -0.03000
C405        C  0.01944658  0.64600711  0.63196291     0.05700
C406        C  0.02069825  0.66855856  0.62883521     0.03700
H407        H  0.01382428  0.62805783  0.66306606     0.08900
H408        H  0.02235710  0.67711517  0.61332878     0.07700
N409        N  0.74681737  0.00018974  0.66240410    -0.26700
N410        N  0.75262469  0.99972761  0.68334041    -0.34600
C411        C  0.77466918  0.99914195  0.68464346     0.01600
C412        C  0.78311680  0.99904377  0.66352282     0.07700
C413        C  0.76498961  0.99990873  0.64984150    -0.05400
H414        H  0.78384915  0.99851036  0.69986336     0.08300
H415        H  0.76490234  0.00050013  0.63207237     0.09500
Cu416      Cu  0.73078446  0.99931975  0.70937687     0.44200
Cu417      Cu  0.71478937  0.00016587  0.65125676     0.42000
Cu418      Cu  0.67400583  0.99456611  0.69329066     0.43900
N419        N  0.70510751  0.99748275  0.73155993    -0.34100
N420        N  0.68429129  0.99564595  0.72559693    -0.28300
C421        C  0.67163508  0.99429372  0.74366024    -0.04400
C422        C  0.68516471  0.99506228  0.76191490     0.07800
C423        C  0.70629007  0.99735527  0.75360508     0.01600
H424        H  0.65391389  0.99252409  0.74347280     0.09200
H425        H  0.72142119  0.99903109  0.76281036     0.08300
N426        N  0.66673561  0.99412076  0.66015220    -0.35500
N427        N  0.68171137  0.99668446  0.64461051    -0.27700
C428        C  0.67178209  0.99626026  0.62489121    -0.03000
C429        C  0.64948640  0.99300647  0.62822601     0.05700
C430        C  0.64685460  0.99184619  0.65078553     0.03700
H431        H  0.68016727  0.99816917  0.60930212     0.08900
H432        H  0.63158082  0.99011894  0.65978479     0.07700
N433        N  0.64968128  0.97394355  0.95521534    -0.36000
N434        N  0.65107861  0.97307164  0.00299687    -0.56600
N435        N  0.64913638  0.02054250  0.00421931    -0.36000
N436        N  0.64889666  0.02157441  0.95639975    -0.56600
C437        C  0.65559082  0.95279698  0.95864968     0.27600
C438        C  0.65392235  0.97854942  0.93388994     0.27600
C439        C  0.65543229  0.01599066  0.02508269     0.27600
C440        C  0.65461929  0.04175112  0.00024247     0.27600
C441        C  0.64886028  0.95133631  0.99901973     0.36200
C442        C  0.64799779  0.97588492  0.02481777     0.36200
C443        C  0.64577071  0.01865848  0.93463060     0.36200
C444        C  0.64593833  0.04320938  0.96036070     0.36200
C445        C  0.66320108  0.94369604  0.93915375    -0.21300
C446        C  0.66218565  0.95996007  0.92353175    -0.21300
C447        C  0.66483630  0.03455436  0.03445025    -0.21300
C448        C  0.66424627  0.05082058  0.01881213    -0.21300
C449        C  0.64424896  0.94024992  0.01839869    -0.22400
C450        C  0.64342960  0.95585524  0.03471749    -0.22400
C451        C  0.64065341  0.03851681  0.92469487    -0.22400
C452        C  0.64076554  0.05411595  0.94104224    -0.22400
C453        C  0.65333227  0.94118055  0.97862770    -0.17700
C454        C  0.64990723  0.99884521  0.92331507    -0.17700
C455        C  0.65034350  0.05348824  0.98066748    -0.17700
C456        C  0.65230746  0.99574046  0.03614105    -0.17700
H457        H  0.66882166  0.92703533  0.93640517     0.15200
H458        H  0.66696234  0.95824300  0.90646642     0.15200
H459        H  0.67152883  0.03622790  0.05084751     0.15200
H460        H  0.67030722  0.06744206  0.02087688     0.15200
H461        H  0.64226232  0.92270243  0.02065036     0.13500
H462        H  0.64079503  0.95268674  0.05203017     0.13500
H463        H  0.63782861  0.04154402  0.90738908     0.13500
H464        H  0.63807311  0.07157097  0.93885345     0.13500
H465        H  0.64127139  0.98399291  0.96623440     0.26700
H466        H  0.63963926  0.01049392  0.99408340     0.26700
N467        N  0.02653573  0.97467158  0.62575971    -0.36000
N468        N  0.02553824  0.02212603  0.62689785    -0.56600
N469        N  0.97744382  0.02165290  0.62674572    -0.36000
N470        N  0.97844194  0.97413106  0.62743214    -0.56600
C471        C  0.04772819  0.97923813  0.63101101     0.27600
C472        C  0.02263876  0.95363232  0.63188536     0.27600
C473        C  0.98135363  0.04285494  0.63217799     0.27600
C474        C  0.95619992  0.01736689  0.63188474     0.27600
C475        C  0.04732475  0.01929665  0.62350664     0.36200
C476        C  0.02164098  0.04381647  0.62442761     0.36200
C477        C  0.98219256  0.95236417  0.62513932     0.36200
C478        C  0.95650292  0.97700806  0.62516243     0.36200
C479        C  0.05747773  0.96078803  0.64014089    -0.21300
C480        C  0.04166341  0.94466015  0.64072360    -0.21300
C481        C  0.96222521  0.05233247  0.64027106    -0.21300
C482        C  0.94633959  0.03624328  0.64007935    -0.21300
C483        C  0.05727572  0.03921790  0.61860930    -0.22400
C484        C  0.04098761  0.05480364  0.61928804    -0.22400
C485        C  0.96257045  0.94138418  0.62116730    -0.22400
C486        C  0.94627609  0.95700882  0.62122655    -0.22400
C487        C  0.05865902  0.99949782  0.62750537    -0.17700
C488        C  0.00259642  0.94202299  0.62922656    -0.17700
C489        C  0.94535747  0.99697900  0.62915186    -0.17700
C490        C  0.00146912  0.05414899  0.62927567    -0.17700
H491        H  0.07420098  0.95914711  0.64602440     0.15200
H492        H  0.04392383  0.92821291  0.64711753     0.15200
H493        H  0.95993352  0.06909906  0.64580035     0.15200
H494        H  0.92948978  0.03821165  0.64553694     0.15200
H495        H  0.07457646  0.04229551  0.61562561     0.13500
H496        H  0.04323630  0.07230566  0.61691400     0.13500
H497        H  0.96015993  0.92385536  0.61917384     0.13500
H498        H  0.92882826  0.95392419  0.61931485     0.13500
H499        H  0.01594822  0.98464265  0.61678931     0.26700
H500        H  0.98811120  0.01132252  0.61829321     0.26700
N501        N  0.97286552  0.64725788  0.95882383    -0.36000
N502        N  0.02108226  0.64970189  0.95821079    -0.56600
N503        N  0.02221042  0.64860640  0.00563920    -0.36000
N504        N  0.97422997  0.64787863  0.00622856    -0.56600
C505        C  0.97661245  0.65314598  0.93772313     0.27600
C506        C  0.95159125  0.65211565  0.96341473     0.27600
C507        C  0.04309983  0.65492421  0.00102783     0.27600
C508        C  0.01802746  0.65454609  0.02667835     0.27600
C509        C  0.01705152  0.64626949  0.93663855     0.36200
C510        C  0.04296865  0.64679027  0.96110931     0.36200
C511        C  0.95255359  0.64387769  0.00332043     0.36200
C512        C  0.97829693  0.64484235  0.02782171     0.36200
C513        C  0.95735906  0.66138453  0.92863779    -0.21300
C514        C  0.94157100  0.66074023  0.94486453    -0.21300
C515        C  0.05237063  0.66468375  0.01943940    -0.21300
C516        C  0.03655405  0.66444703  0.03562397    -0.21300
C517        C  0.03642172  0.64094328  0.92580917    -0.22400
C518        C  0.05285119  0.64123072  0.94134089    -0.22400
C519        C  0.94287017  0.63793465  0.02309066    -0.22400
C520        C  0.95920875  0.63858052  0.03865107    -0.22400
C521        C  0.99670052  0.65049606  0.92621242    -0.17700
C522        C  0.94094177  0.64855742  0.98380255    -0.17700
C523        C  0.99820597  0.65057439  0.03825732    -0.17700
C524        C  0.05429048  0.65128940  0.98091586    -0.17700
H525        H  0.95492706  0.66733750  0.91205088     0.15200
H526        H  0.92468073  0.66612501  0.94319940     0.15200
H527        H  0.06882287  0.67134275  0.02104856     0.15200
H528        H  0.03850269  0.67085878  0.05211323     0.15200
H529        H  0.03856770  0.63781189  0.90841741     0.13500
H530        H  0.07015949  0.63829524  0.93831855     0.13500
H531        H  0.92566906  0.63436605  0.02611477     0.13500
H532        H  0.95713695  0.63557741  0.05607075     0.13500
H533        H  0.98370827  0.63866474  0.96884817     0.26700
H534        H  0.01214463  0.63892042  0.99574012     0.26700
C535        C  0.84395256  0.01101159  0.66496346    -0.01400
C536        C  0.85187247  0.99858850  0.64703295     0.07200
C537        C  0.83699810  0.98634497  0.63430830    -0.07400
C538        C  0.81447923  0.98633488  0.63919501     0.04600
C539        C  0.80659751  0.99867282  0.65725872    -0.14600
C540        C  0.82152108  0.01083517  0.66998821    -0.07900
C541        C  0.87568568  0.99765828  0.64174690     0.05500
C542        C  0.89025745  0.98947019  0.65762392    -0.09100
C543        C  0.91290126  0.98894300  0.65364703     0.00500
C544        C  0.92125077  0.99621894  0.63327675     0.00400
C545        C  0.90671837  0.00419234  0.61725633    -0.12600
C546        C  0.88403230  0.00502371  0.62136188     0.00900
C547        C  0.92738830  0.98167756  0.67097389     0.40200
C548        C  0.86973572  0.01428260  0.60483663     0.36800
C549        C  0.85840937  0.02450222  0.67814126     0.36500
C550        C  0.80008726  0.97273549  0.62605058     0.37300
N551        N  0.93906940  0.97598825  0.68485850    -0.43500
N552        N  0.85819597  0.02171137  0.59167080    -0.44000
N553        N  0.78852709  0.96185820  0.61552084    -0.41300
N554        N  0.86992861  0.03534931  0.68873679    -0.42800
H555        H  0.81559598  0.02052920  0.68374751     0.13400
H556        H  0.84307618  0.97651478  0.62071225     0.09900
H557        H  0.88391829  0.98378301  0.67330558     0.11000
H558        H  0.91318648  0.01015342  0.60173595     0.16800
C559        C  0.65210345  0.00543216  0.81356627    -0.01400
C560        C  0.66570059  0.99607416  0.82984342     0.07200
C561        C  0.68468945  0.98464108  0.82347183    -0.07400
C562        C  0.69108451  0.98362545  0.80144870     0.04600
C563        C  0.67828604  0.99422472  0.78524086    -0.14600
C564        C  0.65851049  0.00447767  0.79147035    -0.07900
C565        C  0.66093283  0.99833461  0.85365126     0.05500
C566        C  0.64107123  0.99009266  0.86217123    -0.09100
C567        C  0.63673837  0.99096621  0.88475197     0.00500
C568        C  0.65264269  0.99974382  0.89912766     0.00400
C569        C  0.67226703  0.00836607  0.89064251    -0.12600
C570        C  0.67647051  0.00788593  0.86808639     0.00900
C571        C  0.61592551  0.98287139  0.89287784     0.40200
C572        C  0.69683473  0.01732759  0.86018228     0.36800
C573        C  0.63188080  0.01659764  0.81913000     0.36500
C574        C  0.71042455  0.97095425  0.79603610     0.37300
N575        N  0.59917459  0.97655802  0.89941407    -0.43500
N576        N  0.71318540  0.02482520  0.85387721    -0.44000
N577        N  0.72591847  0.96070789  0.79186792    -0.41300
N578        N  0.61556327  0.02534701  0.82357529    -0.42800
H579        H  0.64833883  0.01235322  0.77914221     0.13400
H580        H  0.69470225  0.97664018  0.83586644     0.09900
H581        H  0.62909874  0.98268010  0.85121584     0.11000
H582        H  0.68445002  0.01519082  0.90176124     0.16800
C583        C  0.98478358  0.64165431  0.86575989    -0.01400
C584        C  0.99340443  0.66103858  0.85635056     0.07200
C585        C  0.00359844  0.67670667  0.86988522    -0.07400
C586        C  0.00534715  0.67325671  0.89256640     0.04600
C587        C  0.99653055  0.65396480  0.90201261    -0.14600
C588        C  0.98632088  0.63830239  0.88847926    -0.07900
C589        C  0.99253039  0.66509680  0.83234568     0.05500
C590        C  0.97834102  0.68131619  0.82417124    -0.09100
C591        C  0.97798320  0.68638201  0.80168634     0.00500
C592        C  0.99235187  0.67535328  0.78708113     0.00400
C593        C  0.00595057  0.65859166  0.79526470    -0.12600
C594        C  0.00619492  0.65347121  0.81767826     0.00900
C595        C  0.96218449  0.70231783  0.79395927     0.40200
C596        C  0.02122305  0.63681555  0.82540005     0.36800
C597        C  0.97412167  0.62513895  0.85243451     0.36500
C598        C  0.01608564  0.68974507  0.90589544     0.37300
N599        N  0.94939312  0.71496427  0.78776967    -0.43500
N600        N  0.03324789  0.62345845  0.83161326    -0.44000
N601        N  0.02481152  0.70281045  0.91665760    -0.41300
N602        N  0.96566221  0.61186755  0.84171681    -0.42800
H603        H  0.97942710  0.62353012  0.89574282     0.13400
H604        H  0.01036144  0.69155929  0.86265669     0.09900
H605        H  0.96753858  0.69001455  0.83540498     0.11000
H606        H  0.01705343  0.64998999  0.78426498     0.16800
C607        C  0.01943207  0.84248785  0.66955479    -0.01400
C608        C  0.00768720  0.84945720  0.65080654     0.07200
C609        C  0.99739334  0.83372957  0.63745761    -0.07400
C610        C  0.99836537  0.81131326  0.64265300     0.04600
C611        C  0.01000577  0.80426339  0.66148218    -0.14600
C612        C  0.02029074  0.82006609  0.67486781    -0.07900
C613        C  0.00559248  0.87307904  0.64497740     0.05500
C614        C  0.01533724  0.88080867  0.62549957    -0.09100
C615        C  0.01399317  0.90307317  0.61969409     0.00500
C616        C  0.00271891  0.91791976  0.63351761     0.00400
C617        C  0.99251135  0.91007480  0.65266484    -0.12600
C618        C  0.99371689  0.88784574  0.65838905     0.00900
C619        C  0.02445592  0.91044896  0.59967585     0.40200
C620        C  0.98238488  0.88053456  0.67793910     0.36800
C621        C  0.03119338  0.85800362  0.68319189     0.36500
C622        C  0.98623765  0.79608901  0.62904831     0.37300
N623        N  0.03286206  0.91649344  0.58369407    -0.43500
N624        N  0.97327394  0.87473427  0.69361958    -0.44000
N625        N  0.97640975  0.78393035  0.61817651    -0.41300
N626        N  0.04062813  0.87049804  0.69403596    -0.42800
H627        H  0.02936730  0.81484158  0.68928886     0.13400
H628        H  0.98819634  0.83905678  0.62314562     0.09900
H629        H  0.02423865  0.86946866  0.61498951     0.11000
H630        H  0.98380123  0.92145545  0.66329972     0.16800
C631        C  0.83817096  0.68326521  0.98110854    -0.01400
C632        C  0.84688652  0.66375952  0.99005457     0.07200
C633        C  0.83262519  0.64875623  0.00035669    -0.07400
C634        C  0.80995652  0.65295732  0.00184173     0.04600
C635        C  0.80122040  0.67253398  0.99279171    -0.14600
C636        C  0.81561415  0.68741537  0.98246646    -0.07900
C637        C  0.87087185  0.65901493  0.98892481     0.05500
C638        C  0.88565939  0.67381437  0.99870526    -0.09100
C639        C  0.90838836  0.67088067  0.99670220     0.00500
C640        C  0.91674739  0.65236367  0.98546689     0.00400
C641        C  0.90200467  0.63740161  0.97582399    -0.12600
C642        C  0.87918516  0.64070449  0.97730789     0.00900
C643        C  0.92286644  0.68749844  0.00561084     0.40200
C644        C  0.86459706  0.62573882  0.96599669     0.36800
C645        C  0.85200815  0.69920732  0.97016913     0.36500
C646        C  0.79638583  0.63736229  0.01356470     0.37300
N647        N  0.93451069  0.70085887  0.01259298    -0.43500
N648        N  0.85270810  0.61395042  0.95691406    -0.44000
N649        N  0.78557432  0.62480768  0.02297781    -0.41300
N650        N  0.86314445  0.71203432  0.96154794    -0.42800
H651        H  0.80924035  0.70236912  0.97518248     0.13400
H652        H  0.83930146  0.63386934  0.00753715     0.09900
H653        H  0.87938713  0.68801023  0.00750754     0.11000
H654        H  0.90836266  0.62330951  0.96693227     0.16800
C655        C  0.67924978  0.83857805  0.00037976    -0.01400
C656        C  0.66845158  0.84744374  0.98184072     0.07200
C657        C  0.66217519  0.83338868  0.96461684    -0.07400
C658        C  0.66643917  0.81080544  0.96570203     0.04600
C659        C  0.67771141  0.80213569  0.98397838    -0.14600
C660        C  0.68415149  0.81613855  0.00110299    -0.07900
C661        C  0.66421705  0.87140347  0.97994204     0.05500
C662        C  0.68212229  0.88597902  0.98122037    -0.09100
C663        C  0.67885684  0.90870494  0.98071162     0.00500
C664        C  0.65740323  0.91715182  0.97845084     0.00400
C665        C  0.63955284  0.90269374  0.97637923    -0.12600
C666        C  0.64275612  0.87991832  0.97728208     0.00900
C667        C  0.69769112  0.92308931  0.98264768     0.40200
C668        C  0.62369034  0.86573918  0.97657503     0.36800
C669        C  0.68465620  0.85201347  0.01921650     0.36500
C670        C  0.65977699  0.79695358  0.94759062     0.37300
N671        N  0.71278022  0.93462924  0.98415777    -0.43500
N672        N  0.60835606  0.85443407  0.97609736    -0.44000
N673        N  0.65445940  0.78572633  0.93316557    -0.41300
N674        N  0.68883104  0.86280793  0.03432982    -0.42800
H675        H  0.69253616  0.80941067  0.01532454     0.13400
H676        H  0.65407883  0.84011278  0.95023642     0.09900
H677        H  0.69868054  0.87955080  0.98291818     0.11000
H678        H  0.62306300  0.90926652  0.97460814     0.16800
C679        C  0.83270010  0.00389427  0.32814282    -0.01400
C680        C  0.84869827  0.99293239  0.31546497     0.07200
C681        C  0.84199937  0.97973181  0.29779547    -0.07400
C682        C  0.81969510  0.97765312  0.29234264     0.04600
C683        C  0.80358548  0.98920849  0.30457476    -0.14600
C684        C  0.81037942  0.00197693  0.32264866    -0.07900
C685        C  0.87254602  0.99501663  0.32028857     0.05500
C686        C  0.88112110  0.98504351  0.33922877    -0.09100
C687        C  0.90370616  0.98596753  0.34381357     0.00500
C688        C  0.91806332  0.99694655  0.32922271     0.00400
C689        C  0.90938117  0.00731739  0.31053699    -0.12600
C690        C  0.88682031  0.00645362  0.30599477     0.00900
C691        C  0.91181245  0.97556776  0.36352278     0.40200
C692        C  0.87861657  0.01765257  0.28675302     0.36800
C693        C  0.83891922  0.01770246  0.34643668     0.36500
C694        C  0.81388618  0.96291485  0.27465137     0.37300
N695        N  0.91836542  0.96717727  0.37927666    -0.43500
N696        N  0.87202052  0.02667623  0.27136937    -0.44000
N697        N  0.80934778  0.95103385  0.26048296    -0.41300
N698        N  0.84401446  0.02873240  0.36109047    -0.42800
H699        H  0.79830510  0.01098859  0.33219267     0.13400
H700        H  0.85428936  0.97094289  0.28828889     0.09900
H701        H  0.87015569  0.97634268  0.35031034     0.11000
H702        H  0.92033631  0.01593735  0.29937507     0.16800
C703        C  0.64566384  0.00868467  0.09699145    -0.01400
C704        C  0.66287354  0.99633465  0.10645296     0.07200
C705        C  0.67627828  0.98342062  0.09279327    -0.07400
C706        C  0.67312892  0.98306042  0.07000100     0.04600
C707        C  0.65570737  0.99512929  0.06049990    -0.14600
C708        C  0.64208539  0.00783488  0.07421859    -0.07900
C709        C  0.66767519  0.99718839  0.13044188     0.05500
C710        C  0.65193666  0.98944074  0.14546431    -0.09100
C711        C  0.65608088  0.98960946  0.16815378     0.00500
C712        C  0.67641862  0.99768071  0.17621586     0.00400
C713        C  0.69212054  0.00541666  0.16106104    -0.12600
C714        C  0.68791270  0.00528502  0.13842764     0.00900
C715        C  0.63949604  0.98050606  0.18253112     0.40200
C716        C  0.70443966  0.01398001  0.12370837     0.36800
C717        C  0.63212444  0.02303448  0.11022460     0.36500
C718        C  0.68858269  0.97097529  0.05659690     0.37300
N719        N  0.62610978  0.97321767  0.19397027    -0.43500
N720        N  0.71763448  0.02090454  0.11183601    -0.44000
N721        N  0.70090165  0.96133610  0.04574119    -0.41300
N722        N  0.62138978  0.03455306  0.12092906    -0.42800
H723        H  0.62894652  0.01749214  0.06701676     0.13400
H724        H  0.68960790  0.97398989  0.09994921     0.09900
H725        H  0.63645513  0.98294431  0.13938383     0.11000
H726        H  0.70769894  0.01187267  0.16690427     0.16800
C727        C  0.01915399  0.83513155  0.33430045    -0.01400
C728        C  0.00686445  0.85103009  0.32280845     0.07200
C729        C  0.99448024  0.84458184  0.30447870    -0.07400
C730        C  0.99435578  0.82273538  0.29725510     0.04600
C731        C  0.00712983  0.80676454  0.30834871    -0.14600
C732        C  0.01917009  0.81322108  0.32704511    -0.07900
C733        C  0.00755254  0.87478285  0.32840334     0.05500
C734        C  0.01781108  0.88908045  0.31351160    -0.09100
C735        C  0.01679059  0.91185143  0.31639553     0.00500
C736        C  0.00493508  0.92076350  0.33427195     0.00400
C737        C  0.99526609  0.90645995  0.34963888    -0.12600
C738        C  0.99666280  0.88356507  0.34694176     0.00900
C739        C  0.02765979  0.92572214  0.30048665     0.40200
C740        C  0.98646600  0.86946983  0.36309811     0.36800
C741        C  0.03231248  0.84099194  0.35316251     0.36500
C742        C  0.98030729  0.81725755  0.27891955     0.37300
N743        N  0.03658945  0.93673316  0.28778787    -0.43500
N744        N  0.97849064  0.85819936  0.37621090    -0.44000
N745        N  0.96897590  0.81304906  0.26421588    -0.41300
N746        N  0.04281667  0.84558285  0.36835273    -0.42800
H747        H  0.02904591  0.80123124  0.33576498     0.13400
H748        H  0.98485849  0.85678007  0.29572551     0.09900
H749        H  0.02632044  0.88237767  0.29932162     0.11000
H750        H  0.98641094  0.91322245  0.36357392     0.16800
C751        C  0.00996266  0.69200257  0.13832563    -0.01400
C752        C  0.99895260  0.67302429  0.13069582     0.07200
C753        C  0.98828488  0.65928799  0.14582757    -0.07400
C754        C  0.98837490  0.66416966  0.16831592     0.04600
C755        C  0.00001328  0.68276581  0.17612040    -0.14600
C756        C  0.01049409  0.69663662  0.16086793    -0.07900
C757        C  0.99815863  0.66717516  0.10702543     0.05500
C758        C  0.00827558  0.64765352  0.09994810    -0.09100
C759        C  0.00803017  0.64162094  0.07771747     0.00500
C760        C  0.99763397  0.65534069  0.06222798     0.00400
C761        C  0.98698401  0.67451189  0.06938975    -0.12600
C762        C  0.98700042  0.68040898  0.09161441     0.00900
C763        C  0.01826813  0.62122614  0.07118804     0.40200
C764        C  0.97511246  0.69984368  0.09829746     0.36800
C765        C  0.02094171  0.70689556  0.12340495     0.36500
C766        C  0.97515802  0.65063735  0.18269139     0.37300
N767        N  0.02639360  0.60480933  0.06602785    -0.43500
N768        N  0.96563040  0.71542513  0.10372339    -0.44000
N769        N  0.96435910  0.63989971  0.19413688    -0.41300
N770        N  0.02951074  0.71901421  0.11147089    -0.42800
H771        H  0.01938235  0.71102573  0.16656505     0.13400
H772        H  0.97938668  0.64496640  0.13994407     0.09900
H773        H  0.01647681  0.63719462  0.11182065     0.11000
H774        H  0.97873745  0.68493590  0.05751367     0.16800
C775        C  0.97763249  0.11224917  0.30509936    -0.01400
C776        C  0.98950285  0.12747130  0.31803353     0.07200
C777        C  0.00186843  0.11979297  0.33591947    -0.07400
C778        C  0.00334761  0.09723933  0.34040439     0.04600
C779        C  0.99260013  0.08191563  0.32664128    -0.14600
C780        C  0.97950641  0.08967315  0.30927923    -0.07900
C781        C  0.98941223  0.15142024  0.31303516     0.05500
C782        C  0.98075456  0.16614134  0.32852868    -0.09100
C783        C  0.97973118  0.18875908  0.32413935     0.00500
C784        C  0.98767866  0.19706552  0.30386678     0.00400
C785        C  0.99681476  0.18226016  0.28861164    -0.12600
C786        C  0.99784443  0.15969097  0.29305957     0.00900
C787        C  0.96939710  0.20270341  0.34033420     0.40200
C788        C  0.00785222  0.14531957  0.27699357     0.36800
C789        C  0.96313233  0.11950967  0.28775849     0.36500
C790        C  0.01593361  0.09015014  0.35921549     0.37300
N791        N  0.96107369  0.21373120  0.35343505    -0.43500
N792        N  0.01571528  0.13365111  0.26416904    -0.44000
N793        N  0.02604058  0.08435947  0.37424462    -0.41300
N794        N  0.95153429  0.12551477  0.27393193    -0.42800
H795        H  0.97079812  0.07802389  0.29893417     0.13400
H796        H  0.01062650  0.13144572  0.34621549     0.09900
H797        H  0.97429884  0.15984237  0.34392793     0.11000
H798        H  0.00333816  0.18833124  0.27316127     0.16800
C799        C  0.97634389  0.35927723  0.09622890    -0.01400
C800        C  0.98546025  0.34023022  0.10584483     0.07200
C801        C  0.99693568  0.32524467  0.09257057    -0.07400
C802        C  0.99914012  0.32881777  0.06994815     0.04600
C803        C  0.98952339  0.34754940  0.06023544    -0.14600
C804        C  0.97844632  0.36279624  0.07355832    -0.07900
C805        C  0.98281676  0.33524052  0.12959399     0.05500
C806        C  0.96974272  0.31726751  0.13583868    -0.09100
C807        C  0.96724008  0.31156479  0.15802674     0.00500
C808        C  0.97838525  0.32372667  0.17446044     0.00400
C809        C  0.99113906  0.34199315  0.16810609    -0.12600
C810        C  0.99345842  0.34776163  0.14593229     0.00900
C811        C  0.95237907  0.29381026  0.16340759     0.40200
C812        C  0.00741694  0.36614453  0.14025318     0.36800
C813        C  0.96422976  0.37506948  0.10917041     0.36500
C814        C  0.01088821  0.31282469  0.05687622     0.37300
N815        N  0.94037595  0.27964231  0.16769552    -0.43500
N816        N  0.01854710  0.38089693  0.13562277    -0.44000
N817        N  0.02039613  0.30019068  0.04627391    -0.41300
N818        N  0.95461707  0.38779909  0.11955728    -0.42800
H819        H  0.97098997  0.37716664  0.06610790     0.13400
H820        H  0.00405320  0.31064460  0.09991356     0.09900
H821        H  0.96130013  0.30778136  0.12329671     0.11000
H822        H  0.99986310  0.35148894  0.18042246     0.16800
C823        C  0.99410601  0.33989018  0.81385394    -0.01400
C824        C  0.00601060  0.32846002  0.83012395     0.07200
C825        C  0.02076147  0.31188372  0.82373304    -0.07400
C826        C  0.02363157  0.30648339  0.80151353     0.04600
C827        C  0.01144780  0.31770987  0.78524591    -0.14600
C828        C  0.99704818  0.33458800  0.79166977    -0.07900
C829        C  0.00263816  0.33283750  0.85391466     0.05500
C830        C  0.99457479  0.31579097  0.86727735    -0.09100
C831        C  0.99114672  0.31910732  0.88978670     0.00500
C832        C  0.99573044  0.33977189  0.89918747     0.00400
C833        C  0.00378809  0.35682655  0.88593436    -0.12600
C834        C  0.00743485  0.35349159  0.86345948     0.00900
C835        C  0.98361817  0.30098615  0.90317558     0.40200
C836        C  0.01691790  0.37120769  0.85078270     0.36800
C837        C  0.97812151  0.35650676  0.81954207     0.36500
C838        C  0.03967389  0.28990902  0.79585958     0.37300
N839        N  0.97764379  0.28660660  0.91412838    -0.43500
N840        N  0.02445583  0.38547913  0.84067707    -0.44000
N841        N  0.05257499  0.27667026  0.79131552    -0.41300
N842        N  0.96541205  0.36990576  0.82413811    -0.42800
H843        H  0.98745945  0.34320353  0.77936981     0.13400
H844        H  0.03006936  0.30315546  0.83617920     0.09900
H845        H  0.99104392  0.29984011  0.86009595     0.11000
H846        H  0.00779302  0.37256805  0.89333053     0.16800
C847        C  0.99703661  0.11508475  0.61864093    -0.01400
C848        C  0.00189668  0.12387773  0.63956974     0.07200
C849        C  0.00649286  0.10963060  0.65710283    -0.07400
C850        C  0.00652742  0.08688297  0.65399891     0.04600
C851        C  0.00172834  0.07816066  0.63308546    -0.14600
C852        C  0.99698652  0.09229602  0.61556941    -0.07900
C853        C  0.00166548  0.14781091  0.64391812     0.05500
C854        C  0.98640995  0.15601312  0.65914573    -0.09100
C855        C  0.98640780  0.17823941  0.66495439     0.00500
C856        C  0.00165753  0.19273707  0.65510421     0.00400
C857        C  0.01660381  0.18464102  0.63947625    -0.12600
C858        C  0.01702461  0.16224245  0.63416009     0.00900
C859        C  0.97040996  0.18574375  0.68084006     0.40200
C860        C  0.03413743  0.15423083  0.61974365     0.36800
C861        C  0.99161643  0.12903164  0.60024344     0.36500
C862        C  0.01142187  0.07277929  0.67245146     0.37300
N863        N  0.95758952  0.19163579  0.69363118    -0.43500
N864        N  0.04790555  0.14773157  0.60830121    -0.44000
N865        N  0.01536766  0.06149509  0.68724250    -0.41300
N866        N  0.98738082  0.14016329  0.58542089    -0.42800
H867        H  0.99320043  0.08546737  0.59953202     0.13400
H868        H  0.01013095  0.11634489  0.67322702     0.09900
H869        H  0.97464413  0.14490885  0.66672384     0.11000
H870        H  0.02858382  0.19566922  0.63213825     0.16800
C871        C  0.82942720  0.33199809  0.99648395    -0.01400
C872        C  0.84239369  0.32750832  0.97776198     0.07200
C873        C  0.83267239  0.31731413  0.95947509    -0.07400
C874        C  0.81023746  0.31207045  0.95940337     0.04600
C875        C  0.79706656  0.31750145  0.97775483    -0.14600
C876        C  0.80687353  0.32745276  0.99613341    -0.07900
C877        C  0.86624546  0.33262874  0.97707529     0.05500
C878        C  0.88113758  0.31532886  0.97367979    -0.09100
C879        C  0.90378358  0.31927647  0.97321666     0.00500
C880        C  0.91176516  0.34083440  0.97607551     0.00400
C881        C  0.89699985  0.35821898  0.97913339    -0.12600
C882        C  0.87431226  0.35432019  0.97953751     0.00900
C883        C  0.91865889  0.30097857  0.97040438     0.40200
C884        C  0.85970904  0.37282541  0.98237214     0.36800
C885        C  0.83904370  0.34030763  0.01655479     0.36500
C886        C  0.80110694  0.30174905  0.94006617     0.37300
N887        N  0.93073293  0.28643608  0.96821566    -0.43500
N888        N  0.84803584  0.38764365  0.98487390    -0.44000
N889        N  0.79388397  0.29339077  0.92456430    -0.41300
N890        N  0.84681216  0.34691427  0.03262443    -0.42800
H891        H  0.79698397  0.33112084  0.01053194     0.13400
H892        H  0.84265852  0.31354071  0.94516571     0.09900
H893        H  0.87504553  0.29865997  0.97175849     0.11000
H894        H  0.90326205  0.37478217  0.98138589     0.16800
C895        C  0.65867120  0.16031156  0.00485080    -0.01400
C896        C  0.66093665  0.14810785  0.98517837     0.07200
C897        C  0.66599808  0.15925017  0.96561026    -0.07400
C898        C  0.66990325  0.18190204  0.96553679     0.04600
C899        C  0.66820889  0.19401458  0.98523899    -0.14600
C900        C  0.66205563  0.18315922  0.00466498    -0.07900
C901        C  0.65849750  0.12373780  0.98444650     0.05500
C902        C  0.63864530  0.11399473  0.99128024    -0.09100
C903        C  0.63563361  0.09117654  0.98999103     0.00500
C904        C  0.65245297  0.07782114  0.98129100     0.00400
C905        C  0.67224263  0.08746008  0.97439981    -0.12600
C906        C  0.67549856  0.11017457  0.97616285     0.00900
C907        C  0.61523552  0.08171461  0.99770117     0.40200
C908        C  0.69674676  0.11906385  0.97021417     0.36800
C909        C  0.65402060  0.14967768  0.02556886     0.36500
C910        C  0.67533840  0.19239869  0.94494330     0.37300
N911        N  0.59895431  0.07400670  0.00392419    -0.43500
N912        N  0.71378433  0.12622111  0.96554662    -0.44000
N913        N  0.67972641  0.20085469  0.92846917    -0.41300
N914        N  0.65032708  0.14117246  0.04219018    -0.42800
H915        H  0.66081065  0.19239453  0.01987862     0.13400
H916        H  0.66723053  0.15010942  0.95033663     0.09900
H917        H  0.62544942  0.12424328  0.99752558     0.11000
H918        H  0.68535980  0.07709957  0.96815023     0.16800
C919        C  0.15576163  0.01977959  0.29748162    -0.01400
C920        C  0.14761954  0.00646108  0.31461668     0.07200
C921        C  0.16218503  0.99341086  0.32677418    -0.07400
C922        C  0.18475121  0.99360148  0.32217415     0.04600
C923        C  0.19296105  0.00707683  0.30512467    -0.14600
C924        C  0.17828241  0.01987750  0.29277706    -0.07900
C925        C  0.12387679  0.00570682  0.31985527     0.05500
C926        C  0.10945915  0.99613199  0.30463748    -0.09100
C927        C  0.08682744  0.99569040  0.30864268     0.00500
C928        C  0.07839791  0.00475445  0.32825934     0.00400
C929        C  0.09280769  0.01419539  0.34358769    -0.12600
C930        C  0.11548283  0.01476332  0.33949384     0.00900
C931        C  0.07246490  0.98657467  0.29207791     0.40200
C932        C  0.12978170  0.02531287  0.35524662     0.36800
C933        C  0.14140141  0.03396697  0.28500250     0.36500
C934        C  0.19892009  0.97906829  0.33445674     0.37300
N935        N  0.06096193  0.97945990  0.27869106    -0.43500
N936        N  0.14132800  0.03379801  0.36778176    -0.44000
N937        N  0.21029288  0.96736977  0.34422634    -0.41300
N938        N  0.12989039  0.04540069  0.27508415    -0.42800
H939        H  0.18448514  0.03031956  0.27970329     0.13400
H940        H  0.15584241  0.98291609  0.33974052     0.09900
H941        H  0.11591611  0.98924768  0.28949038     0.11000
H942        H  0.08627851  0.02130805  0.35858872     0.16800
C943        C  0.35834166  0.00775747  0.10232224    -0.01400
C944        C  0.33723237  0.00362292  0.11129655     0.07200
C945        C  0.31945792  0.99975869  0.09705219    -0.07400
C946        C  0.32246671  0.99960891  0.07432083     0.04600
C947        C  0.34338149  0.00422340  0.06547491    -0.14600
C948        C  0.36117999  0.00823199  0.07950197    -0.07900
C949        C  0.33296899  0.00435811  0.13533190     0.05500
C950        C  0.33902859  0.02328279  0.14711329    -0.09100
C951        C  0.33419292  0.02531616  0.16947190     0.00500
C952        C  0.32246464  0.00846954  0.18026272     0.00400
C953        C  0.31629185  0.98957398  0.16857745    -0.12600
C954        C  0.32169880  0.98723146  0.14635139     0.00900
C955        C  0.34047189  0.04532016  0.18064185     0.40200
C956        C  0.31566629  0.96704872  0.13532951     0.36800
C957        C  0.37738666  0.01122055  0.11608823     0.36500
C958        C  0.30391683  0.99467281  0.06032087     0.37300
N959        N  0.34554793  0.06136375  0.18955187    -0.43500
N960        N  0.31073853  0.95093043  0.12646441    -0.44000
N961        N  0.28912035  0.99058254  0.04906430    -0.41300
N962        N  0.39266791  0.01410288  0.12706921    -0.42800
H963        H  0.37730809  0.01153876  0.07257264     0.13400
H964        H  0.30311268  0.99701664  0.10370233     0.09900
H965        H  0.34713952  0.03676864  0.13869319     0.11000
H966        H  0.30740828  0.97651941  0.17691742     0.16800
C967        C  0.33902292  0.99029107  0.82075561    -0.01400
C968        C  0.32894206  0.00551734  0.83506740     0.07200
C969        C  0.31515202  0.02181949  0.82635721    -0.07400
C970        C  0.31080617  0.02272011  0.80379095     0.04600
C971        C  0.32063217  0.00726649  0.78950646    -0.14600
C972        C  0.33500115  0.99143096  0.79814633    -0.07900
C973        C  0.33247592  0.00463166  0.85917176     0.05500
C974        C  0.35381510  0.00757735  0.86749982    -0.09100
C975        C  0.35778917  0.00684046  0.89013764     0.00500
C976        C  0.34013788  0.00338320  0.90484033     0.00400
C977        C  0.31876982  0.00069429  0.89652248    -0.12600
C978        C  0.31485027  0.00105550  0.87388149     0.00900
C979        C  0.37995106  0.01034188  0.89796332     0.40200
C980        C  0.29270848  0.99728092  0.86611439     0.36800
C981        C  0.35266967  0.97271498  0.82900074     0.36500
C982        C  0.29664282  0.03994378  0.79566843     0.37300
N983        N  0.39765697  0.01344816  0.90425207    -0.43500
N984        N  0.27497380  0.99426127  0.85986203    -0.44000
N985        N  0.28528123  0.05371015  0.78909952    -0.41300
N986        N  0.36352731  0.95859236  0.83565751    -0.42800
H987        H  0.34245830  0.97938003  0.78730752     0.13400
H988        H  0.30766498  0.03378655  0.83727332     0.09900
H989        H  0.36736310  0.01059350  0.85626269     0.11000
H990        H  0.30515316  0.99818728  0.90780499     0.16800
C991        C  0.11345350  0.01101069  0.65480734    -0.01400
C992        C  0.12819383  0.99913385  0.64135185     0.07200
C993        C  0.12020689  0.98866947  0.62237968    -0.07400
C994        C  0.09779727  0.98939377  0.61704754     0.04600
C995        C  0.08292668  0.00042207  0.63104665    -0.14600
C996        C  0.09101282  0.01144044  0.64966014    -0.07900
C997        C  0.15178971  0.99675356  0.64730687     0.05500
C998        C  0.15722887  0.98648402  0.66721972    -0.09100
C999        C  0.17918863  0.98430467  0.67379713     0.00500
C1000       C  0.19626692  0.99243317  0.66020751     0.00400
C1001       C  0.19080428  0.00206157  0.63994224    -0.12600
C1002       C  0.16880865  0.00437861  0.63348167     0.00900
C1003       C  0.18362185  0.97306204  0.69422159     0.40200
C1004       C  0.16407281  0.01539254  0.61301279     0.36800
C1005       C  0.12103269  0.02298045  0.67387822     0.36500
C1006       C  0.09040445  0.97863200  0.59722779     0.37300
N1007       N  0.18702437  0.96403507  0.71061506    -0.43500
N1008       N  0.16022649  0.02421833  0.59661399    -0.44000
N1009       N  0.08456598  0.97003796  0.58128228    -0.41300
N1010       N  0.12720706  0.03256634  0.68912146    -0.42800
H1011       H  0.07966430  0.02007769  0.66039149     0.13400
H1012       H  0.13146428  0.97959973  0.61191943     0.09900
H1013       H  0.14420626  0.98013909  0.67767372     0.11000
H1014       H  0.20371844  0.00845545  0.62940237     0.16800
C1015       C  0.34351754  0.83777149  0.99876296    -0.01400
C1016       C  0.33072385  0.85337012  0.98728741     0.07200
C1017       C  0.31356447  0.84594869  0.97375348    -0.07400
C1018       C  0.30856814  0.82354103  0.97200442     0.04600
C1019       C  0.32101036  0.80790258  0.98384501    -0.14600
C1020       C  0.33866129  0.81525891  0.99686558    -0.07900
C1021       C  0.33494962  0.87748111  0.98876504     0.05500
C1022       C  0.35533290  0.88594040  0.98176046    -0.09100
C1023       C  0.35919545  0.90868185  0.98131884     0.00500
C1024       C  0.34245729  0.92332691  0.98778829     0.00400
C1025       C  0.32229821  0.91494461  0.99528471    -0.12600
C1026       C  0.31842561  0.89224559  0.99583902     0.00900
C1027       C  0.38037904  0.91673066  0.97416735     0.40200
C1028       C  0.29740107  0.88451275  0.00383570     0.36800
C1029       C  0.36121644  0.84448570  0.01311234     0.36500
C1030       C  0.29107114  0.81709538  0.95729929     0.37300
N1031       N  0.39735557  0.92329537  0.96852026    -0.43500
N1032       N  0.28052132  0.87835382  0.01019451    -0.44000
N1033       N  0.27703271  0.81202195  0.94548321    -0.41300
N1034       N  0.37542228  0.84984489  0.02460131    -0.42800
H1035       H  0.34832061  0.80344103  0.00606072     0.13400
H1036       H  0.30403285  0.85778259  0.96443149     0.09900
H1037       H  0.36808711  0.87477264  0.97621692     0.11000
H1038       H  0.30949684  0.92622253  0.00051049     0.16800
C1039       C  0.16499301  0.65425221  0.97505675    -0.01400
C1040       C  0.14862329  0.66730518  0.98502898     0.07200
C1041       C  0.15502495  0.68584434  0.99720293    -0.07400
C1042       C  0.17729094  0.69172833  0.99922435     0.04600
C1043       C  0.19377468  0.67896885  0.98879090    -0.14600
C1044       C  0.18729863  0.66007121  0.97706873    -0.07900
C1045       C  0.12469247  0.66230616  0.98257869     0.05500
C1046       C  0.11548675  0.64431695  0.99379304    -0.09100
C1047       C  0.09276616  0.64006759  0.99284583     0.00500
C1048       C  0.07882119  0.65395398  0.98051518     0.00400
C1049       C  0.08816868  0.67154684  0.96877854    -0.12600
C1050       C  0.11087217  0.67576570  0.96971107     0.00900
C1051       C  0.08396254  0.62156256  0.00486834     0.40200
C1052       C  0.11974807  0.69397819  0.95731540     0.36800
C1053       C  0.15919261  0.63531263  0.96196698     0.36500
C1054       C  0.18267461  0.71047922  0.01277182     0.37300
N1055       N  0.07667223  0.60684848  0.01451012    -0.43500
N1056       N  0.12705172  0.70850686  0.94740951    -0.44000
N1057       N  0.18687021  0.72550001  0.02369898    -0.41300
N1058       N  0.15449577  0.62018043  0.95141058    -0.42800
H1059       H  0.19964472  0.65012544  0.96889717     0.13400
H1060       H  0.14251262  0.69578378  0.00515264     0.09900
H1061       H  0.12602005  0.63383552  0.00362558     0.11000
H1062       H  0.07761368  0.68228185  0.95924305     0.16800
C1063       C  0.31441164  0.11457307  0.97372115    -0.01400
C1064       C  0.32890392  0.13000341  0.98332122     0.07200
C1065       C  0.34865776  0.12256740  0.99272952    -0.07400
C1066       C  0.35396793  0.10013989  0.99280264     0.04600
C1067       C  0.33922506  0.08474010  0.98363514    -0.14600
C1068       C  0.31958798  0.09216385  0.97408706    -0.07900
C1069       C  0.32344170  0.15384439  0.98408382     0.05500
C1070       C  0.30435379  0.16058557  0.99522091    -0.09100
C1071       C  0.29830777  0.18278947  0.99601490     0.00500
C1072       C  0.31152450  0.19878169  0.98550101     0.00400
C1073       C  0.33092183  0.19208454  0.97483400    -0.12600
C1074       C  0.33690067  0.16984738  0.97396663     0.00900
C1075       C  0.27908028  0.18876182  0.00863643     0.40200
C1076       C  0.35653700  0.16377960  0.96203333     0.36800
C1077       C  0.29437003  0.12138765  0.96297452     0.36500
C1078       C  0.37463353  0.09324216  0.00221630     0.37300
N1079       N  0.26372355  0.19355640  0.01883721    -0.43500
N1080       N  0.37227822  0.15887277  0.95249605    -0.44000
N1081       N  0.39120241  0.08763508  0.00970544    -0.41300
N1082       N  0.27833531  0.12687414  0.95432704    -0.42800
H1083       H  0.30827236  0.08035467  0.96692243     0.13400
H1084       H  0.35986786  0.13430604  0.00015697     0.09900
H1085       H  0.29420893  0.14841711  0.00346207     0.09800
H1086       H  0.34122454  0.20421774  0.96674690     0.16800
C1087       C  0.10476114  0.32805858  0.99483410    -0.01400
C1088       C  0.11837242  0.34348586  0.98410152     0.07200
C1089       C  0.10890896  0.36158244  0.97346203    -0.07400
C1090       C  0.08602807  0.36412762  0.97288099     0.04600
C1091       C  0.07239572  0.34848131  0.98330469    -0.14600
C1092       C  0.08191938  0.33071233  0.99444411    -0.07900
C1093       C  0.14234620  0.33994161  0.98221294     0.05500
C1094       C  0.14989850  0.32459489  0.96682539    -0.09100
C1095       C  0.17232999  0.31992913  0.96486926     0.00500
C1096       C  0.18768269  0.33058954  0.97876021     0.00400
C1097       C  0.18007485  0.34666944  0.99358087    -0.12600
C1098       C  0.15755648  0.35134231  0.99543603     0.00900
C1099       C  0.17903155  0.30457705  0.94804050     0.40200
C1100       C  0.15030164  0.36722101  0.01153729     0.36800
C1101       C  0.11388561  0.30924353  0.00603896     0.36500
C1102       C  0.07686191  0.38250432  0.96101171     0.37300
N1103       N  0.18423183  0.29226724  0.93448213    -0.43500
N1104       N  0.14442118  0.37988635  0.02447620    -0.44000
N1105       N  0.06953321  0.39715801  0.95136114    -0.41300
N1106       N  0.12117886  0.29415916  0.01503151    -0.42800
H1107       H  0.07142402  0.31862684  0.00236660     0.13400
H1108       H  0.11939852  0.37333742  0.96505995     0.09900
H1109       H  0.13814695  0.31616378  0.95635330     0.11000
H1110       H  0.19160562  0.35500992  0.00433442     0.16800
C1111       C  0.99518579  0.56572745  0.56195599    -0.01400
C1112       C  0.01415141  0.57875743  0.56481681     0.07200
C1113       C  0.03223681  0.57573180  0.55085351    -0.07400
C1114       C  0.03163181  0.56005745  0.53398204     0.04600
C1115       C  0.01267641  0.54675719  0.53111476    -0.14600
C1116       C  0.99457638  0.54989809  0.54523005    -0.07900
C1117       C  0.01532412  0.59603517  0.58195677     0.05500
C1118       C  0.02778886  0.59218433  0.60093127    -0.09100
C1119       C  0.02943111  0.60820944  0.61742008     0.00500
C1120       C  0.01868941  0.62867115  0.61482881     0.00400
C1121       C  0.00649676  0.63255686  0.59561208    -0.12600
C1122       C  0.00457507  0.61637551  0.57933735     0.00900
C1123       C  0.04285573  0.60347171  0.63640373     0.40200
C1124       C  0.99145192  0.62092472  0.56010031     0.36800
C1125       C  0.97623592  0.56827989  0.57607537     0.36500
C1126       C  0.05027922  0.55883172  0.51928242     0.37300
N1127       N  0.05362826  0.59959900  0.65159446    -0.43500
N1128       N  0.98083749  0.62445745  0.54472043    -0.44000
N1129       N  0.06516977  0.55792949  0.50743016    -0.41300
N1130       N  0.96105301  0.57038336  0.58738737    -0.42800
H1131       H  0.97991641  0.53988402  0.54329809     0.13400
H1132       H  0.04672090  0.58598893  0.55289634     0.09900
H1133       H  0.03621423  0.57658654  0.60285317     0.11000
H1134       H  0.99805004  0.64811073  0.59350029     0.16800
C1135       C  0.02405862  0.42159220  0.54812429    -0.01400
C1136       C  0.00511896  0.41769932  0.56090124     0.07200
C1137       C  0.98608227  0.43003631  0.55698779    -0.07400
C1138       C  0.98570960  0.44634919  0.54074362     0.04600
C1139       C  0.00488356  0.45071075  0.52809552    -0.14600
C1140       C  0.02383862  0.43797674  0.53196812    -0.07900
C1141       C  0.00483468  0.40075580  0.57841052     0.05500
C1142       C  0.01755942  0.40399929  0.59735852    -0.09100
C1143       C  0.01801368  0.38818675  0.61409209     0.00500
C1144       C  0.00542058  0.36869900  0.61197580     0.00400
C1145       C  0.99271165  0.36555850  0.59294162    -0.12600
C1146       C  0.99228459  0.38138489  0.57627066     0.00900
C1147       C  0.03242820  0.39195875  0.63257771     0.40200
C1148       C  0.97929228  0.37717241  0.55685681     0.36800
C1149       C  0.04375399  0.40864988  0.55104495     0.36500
C1150       C  0.96546792  0.45842363  0.53786209     0.37300
N1151       N  0.04406887  0.39507422  0.64731073    -0.43500
N1152       N  0.96890428  0.37383135  0.54127024    -0.44000
N1153       N  0.94917984  0.46799963  0.53557401    -0.41300
N1154       N  0.05948015  0.39820338  0.55341708    -0.42800
H1155       H  0.03859982  0.44073536  0.52231187     0.13400
H1156       H  0.97147252  0.42696362  0.56680258     0.09900
H1157       H  0.02734430  0.41885659  0.59893978     0.11000
H1158       H  0.98298172  0.35070585  0.59109317     0.16800
C1159       C  0.99111180  0.56985032  0.40643236    -0.01400
C1160       C  0.01056172  0.58098262  0.40034755     0.07200
C1161       C  0.03010102  0.57650929  0.41179075    -0.07400
C1162       C  0.03056134  0.56103471  0.42890570     0.04600
C1163       C  0.01111499  0.54949490  0.43473902    -0.14600
C1164       C  0.99155863  0.55430321  0.42335849    -0.07900
C1165       C  0.01064552  0.59787375  0.38264048     0.05500
C1166       C  0.99812804  0.61703946  0.38548906    -0.09100
C1167       C  0.99796321  0.63355488  0.36945842     0.00500
C1168       C  0.01038695  0.63096852  0.34996653     0.00400
C1169       C  0.02257913  0.61160574  0.34691699    -0.12600
C1170       C  0.02306761  0.59526243  0.36317148     0.00900
C1171       C  0.98442815  0.65270290  0.37319025     0.40200
C1172       C  0.03650033  0.57603750  0.35951531     0.36800
C1173       C  0.97048126  0.57375931  0.39534890     0.36500
C1174       C  0.05104947  0.55796044  0.44051337     0.37300
N1175       N  0.97368028  0.66813360  0.37611045    -0.43500
N1176       N  0.04745678  0.56075989  0.35657631    -0.44000
N1177       N  0.06746665  0.55558525  0.44984818    -0.41300
N1178       N  0.95382271  0.57679849  0.38666673    -0.42800
H1179       H  0.97646556  0.54568914  0.42748027     0.13400
H1180       H  0.04500317  0.58538149  0.40749965     0.09900
H1181       H  0.98856630  0.61916270  0.40041207     0.11000
H1182       H  0.03219911  0.60948638  0.33203311     0.16800
C1183       C  0.00918917  0.38662546  0.38201255    -0.01400
C1184       C  0.99720270  0.40635922  0.38052458     0.07200
C1185       C  0.98314421  0.40976034  0.36261258    -0.07400
C1186       C  0.98086675  0.39373917  0.34619942     0.04600
C1187       C  0.99300922  0.37392373  0.34754405    -0.14600
C1188       C  0.00700935  0.37061392  0.36561784    -0.07900
C1189       C  0.99881168  0.42340531  0.39783249     0.05500
C1190       C  0.01774211  0.43654466  0.39888900    -0.09100
C1191       C  0.02021240  0.45235920  0.41545503     0.00500
C1192       C  0.00346965  0.45511980  0.43143376     0.00400
C1193       C  0.98438484  0.44207514  0.43007229    -0.12600
C1194       C  0.98199151  0.42627163  0.41351306     0.00900
C1195       C  0.03973975  0.46593480  0.41514976     0.40200
C1196       C  0.96244046  0.41273908  0.41328290     0.36800
C1197       C  0.02344413  0.38232530  0.40049167     0.36500
C1198       C  0.96496269  0.39757252  0.32901131     0.37300
N1199       N  0.05536672  0.47684466  0.41486112    -0.43500
N1200       N  0.94679963  0.40185187  0.41313049    -0.44000
N1201       N  0.95208623  0.40067604  0.31535454    -0.41300
N1202       N  0.03481139  0.37897221  0.41536656    -0.42800
H1203       H  0.01636768  0.35549999  0.36691582     0.13400
H1204       H  0.97369889  0.42485691  0.36164945     0.09900
H1205       H  0.03061245  0.43441206  0.38669578     0.11000
H1206       H  0.97143803  0.44392630  0.44222473     0.16800
C1207       C  0.56537979  0.01301180  0.56269297    -0.01400
C1208       C  0.58078676  0.99571614  0.56285112     0.07200
C1209       C  0.57990194  0.97953856  0.54648267    -0.07400
C1210       C  0.56400885  0.98046751  0.52986826     0.04600
C1211       C  0.54850774  0.99784109  0.52961283    -0.14600
C1212       C  0.54953584  0.01404703  0.54606245    -0.07900
C1213       C  0.59861477  0.99478426  0.57936596     0.05500
C1214       C  0.59792989  0.97866186  0.59582798    -0.09100
C1215       C  0.61441762  0.97764224  0.61188412     0.00500
C1216       C  0.63204616  0.99282414  0.61134311     0.00400
C1217       C  0.63296516  0.00852098  0.59447129    -0.12600
C1218       C  0.61636447  0.00970025  0.57864187     0.00900
C1219       C  0.61327872  0.96045760  0.62823229     0.40200
C1220       C  0.61781197  0.02635667  0.56179105     0.36800
C1221       C  0.56530898  0.02964462  0.57965157     0.36500
C1222       C  0.56459042  0.96386425  0.51287909     0.37300
N1223       N  0.61245266  0.94669783  0.64135039    -0.43500
N1224       N  0.61879628  0.03974313  0.54831100    -0.44000
N1225       N  0.56501675  0.95061001  0.49921833    -0.41300
N1226       N  0.56522703  0.04294813  0.59326610    -0.42800
H1227       H  0.53767525  0.02736119  0.54618623     0.13400
H1228       H  0.59194255  0.96637894  0.54647979     0.09900
H1229       H  0.58441764  0.96698459  0.59619263     0.11000
H1230       H  0.64644749  0.02022339  0.59392634     0.16800
C1231       C  0.43850711  0.97546142  0.56283820    -0.01400
C1232       C  0.42139864  0.99083934  0.56549407     0.07200
C1233       C  0.42007486  0.00889455  0.55121483    -0.07400
C1234       C  0.43553116  0.01180062  0.53436961     0.04600
C1235       C  0.45266713  0.99634035  0.53163683    -0.14600
C1236       C  0.45384140  0.97821624  0.54589552    -0.07900
C1237       C  0.40515319  0.98900923  0.58356010     0.05500
C1238       C  0.40654018  0.00389182  0.60107312    -0.09100
C1239       C  0.39090539  0.00372166  0.61797412     0.00500
C1240       C  0.37321428  0.98858157  0.61730534     0.00400
C1241       C  0.37198492  0.97353214  0.59979405    -0.12600
C1242       C  0.38791479  0.97347801  0.58309907     0.00900
C1243       C  0.39290410  0.02003974  0.63510174     0.40200
C1244       C  0.38609680  0.95762028  0.56550874     0.36800
C1245       C  0.44105932  0.95712423  0.57766676     0.36500
C1246       C  0.43299553  0.03034454  0.51975506     0.37300
N1247       N  0.39467873  0.03317920  0.64876201    -0.43500
N1248       N  0.38475813  0.94483368  0.55146820    -0.44000
N1249       N  0.43100833  0.04517471  0.50800544    -0.41300
N1250       N  0.44325175  0.94242099  0.58952855    -0.42800
H1251       H  0.46705357  0.96636977  0.54407018     0.13400
H1252       H  0.40688789  0.02073453  0.55326343     0.09900
H1253       H  0.41979045  0.01587546  0.60137243     0.11000
H1254       H  0.35857817  0.96174793  0.59919504     0.16800
C1255       C  0.61734514  0.99746288  0.38770201    -0.01400
C1256       C  0.59720683  0.00853813  0.38492513     0.07200
C1257       C  0.59395180  0.02155140  0.36621552    -0.07400
C1258       C  0.61014644  0.02302209  0.34988095     0.04600
C1259       C  0.62995622  0.01098541  0.35203577    -0.14600
C1260       C  0.63343022  0.99865262  0.37128487    -0.07900
C1261       C  0.57960611  0.00735994  0.40171645     0.05500
C1262       C  0.57444428  0.02635376  0.41364231    -0.09100
C1263       C  0.55829884  0.02599340  0.43004539     0.00500
C1264       C  0.54683673  0.00618847  0.43469462     0.00400
C1265       C  0.55200014  0.98722019  0.42244755    -0.12600
C1266       C  0.56810338  0.98769299  0.40601783     0.00900
C1267       C  0.55434631  0.04614991  0.44197218     0.40200
C1268       C  0.57216954  0.96793495  0.39346146     0.36800
C1269       C  0.62195031  0.98505210  0.40740794     0.36500
C1270       C  0.60630050  0.03778787  0.33172187     0.37300
N1271       N  0.55119631  0.06232014  0.45151223    -0.43500
N1272       N  0.57534640  0.95207535  0.38342387    -0.44000
N1273       N  0.60308878  0.04978747  0.31731857    -0.41300
N1274       N  0.62555965  0.97514662  0.42323620    -0.42800
H1275       H  0.64858295  0.98951929  0.37340768     0.13400
H1276       H  0.57869136  0.03061802  0.36441306     0.09900
H1277       H  0.58331463  0.04148736  0.41027926     0.11000
H1278       H  0.54332138  0.97193020  0.42553093     0.16800
C1279       C  0.37908951  0.01972184  0.39143150    -0.01400
C1280       C  0.40025483  0.01156772  0.38671226     0.07200
C1281       C  0.40498810  0.00377794  0.36556997    -0.07400
C1282       C  0.38909039  0.00432926  0.34898238     0.04600
C1283       C  0.36806203  0.01336263  0.35337671    -0.14600
C1284       C  0.36330346  0.02080266  0.37475223    -0.07900
C1285       C  0.41742524  0.00990517  0.40383557     0.05500
C1286       C  0.42399861  0.98899395  0.41076485    -0.09100
C1287       C  0.44030358  0.98643486  0.42676385     0.00500
C1288       C  0.45051541  0.00524505  0.43614241     0.00400
C1289       C  0.44382218  0.02622405  0.42895403    -0.12600
C1290       C  0.42752084  0.02866288  0.41292372     0.00900
C1291       C  0.44584758  0.96424699  0.43310820     0.40200
C1292       C  0.42184324  0.05053505  0.40564234     0.36800
C1293       C  0.37295183  0.02616558  0.41345163     0.36500
C1294       C  0.39453570  0.99422999  0.32818974     0.37300
N1295       N  0.45011468  0.94637356  0.43803591    -0.43500
N1296       N  0.41733509  0.06807485  0.39982143    -0.44000
N1297       N  0.39904102  0.98596637  0.31163919    -0.41300
N1298       N  0.36801433  0.03114080  0.43114849    -0.42800
H1299       H  0.34718693  0.02745799  0.37851289     0.13400
H1300       H  0.42110182  0.99689412  0.36214409     0.09900
H1301       H  0.41622162  0.97456808  0.40366351     0.11000
H1302       H  0.45145751  0.04087681  0.43569108     0.16800
C1303       C  0.55724827  0.57845175  0.99007141    -0.01400
C1304       C  0.57459791  0.58055147  0.00522650     0.07200
C1305       C  0.57607143  0.56603009  0.02300797    -0.07400
C1306       C  0.56047004  0.54935920  0.02589031     0.04600
C1307       C  0.54299007  0.54715279  0.01076032    -0.14600
C1308       C  0.54164632  0.56174180  0.99287070    -0.07900
C1309       C  0.59159524  0.59768734  0.00282992     0.05500
C1310       C  0.58929020  0.61731265  0.01464351    -0.09100
C1311       C  0.60560666  0.63353351  0.01370958     0.00500
C1312       C  0.62450949  0.63016359  0.00057804     0.00400
C1313       C  0.62679421  0.61037258  0.98889707    -0.12600
C1314       C  0.61048052  0.59418027  0.98988510     0.00900
C1315       C  0.60316607  0.65274635  0.02745274     0.40200
C1316       C  0.61349298  0.57405062  0.97764660     0.36800
C1317       C  0.55514387  0.59332502  0.97168632     0.36500
C1318       C  0.56341102  0.53414860  0.04385781     0.37300
N1319       N  0.60121943  0.66802219  0.03864511    -0.43500
N1320       N  0.61591711  0.55793168  0.96781671    -0.44000
N1321       N  0.56579827  0.52188589  0.05819705    -0.41300
N1322       N  0.55348814  0.60529687  0.95699661    -0.42800
H1323       H  0.52826417  0.56021669  0.98117322     0.13400
H1324       H  0.58961331  0.56761052  0.03451712     0.09900
H1325       H  0.57488928  0.61975010  0.02492093     0.11000
H1326       H  0.64125955  0.60763719  0.97879602     0.16800
C1327       C  0.59078638  0.38156142  0.00570093    -0.01400
C1328       C  0.59364525  0.40001472  0.01944861     0.07200
C1329       C  0.61293398  0.40192408  0.03197065    -0.07400
C1330       C  0.62962791  0.38606077  0.03041014     0.04600
C1331       C  0.62688106  0.36772020  0.01637264    -0.14600
C1332       C  0.60725081  0.36558532  0.00439812    -0.07900
C1333       C  0.57724925  0.41806951  0.01988262     0.05500
C1334       C  0.56332727  0.42050171  0.03812000    -0.09100
C1335       C  0.54713664  0.43696423  0.03855187     0.00500
C1336       C  0.54461739  0.45124271  0.02030275     0.00400
C1337       C  0.55893398  0.44888160  0.00227789    -0.12600
C1338       C  0.57521375  0.43264954  0.00202872     0.00900
C1339       C  0.53303290  0.43830135  0.05763318     0.40200
C1340       C  0.58988161  0.43140254  0.98337184     0.36800
C1341       C  0.57120554  0.37877246  0.99255395     0.36500
C1342       C  0.64916186  0.38882249  0.04362654     0.37300
N1343       N  0.52182756  0.43935752  0.07300147    -0.43500
N1344       N  0.60170255  0.43040763  0.96847385    -0.44000
N1345       N  0.66483890  0.39109386  0.05418790    -0.41300
N1346       N  0.55560196  0.37645032  0.98190303    -0.42800
H1347       H  0.60496282  0.35163457  0.99351287     0.13400
H1348       H  0.61513481  0.41608482  0.04260149     0.09900
H1349       H  0.56493733  0.40931543  0.05190879     0.11000
H1350       H  0.55753537  0.45988308  0.98832250     0.16800
C1351       C  0.38103003  0.60058751  0.01757752    -0.01400
C1352       C  0.40129925  0.59989773  0.00629143     0.07200
C1353       C  0.40591358  0.61602700  0.99045358    -0.07400
C1354       C  0.39065451  0.63259367  0.98558141     0.04600
C1355       C  0.37024237  0.63327398  0.99678421    -0.14600
C1356       C  0.36575765  0.61716009  0.01276605    -0.07900
C1357       C  0.41702688  0.58138902  0.00901494     0.05500
C1358       C  0.41967227  0.56668074  0.99147578    -0.09100
C1359       C  0.43462978  0.54923657  0.99268924     0.00500
C1360       C  0.44776105  0.54644773  0.01173250     0.00400
C1361       C  0.44474950  0.56105093  0.02947523    -0.12600
C1362       C  0.42956067  0.57837321  0.02827431     0.00900
C1363       C  0.43552030  0.53419107  0.97433000     0.40200
C1364       C  0.42754923  0.59310421  0.04678850     0.36800
C1365       C  0.37519609  0.58406326  0.03359604     0.36500
C1366       C  0.39586110  0.64764104  0.96797633     0.37300
N1367       N  0.43609462  0.52210482  0.95963269    -0.43500
N1368       N  0.42598242  0.60478086  0.06174085    -0.44000
N1369       N  0.40018319  0.65950040  0.95372946    -0.41300
N1370       N  0.37045647  0.57088470  0.04648552    -0.42800
H1371       H  0.35020968  0.61745601  0.02153371     0.13400
H1372       H  0.42132156  0.61530435  0.98144383     0.09900
H1373       H  0.40982951  0.56879180  0.97675331     0.11000
H1374       H  0.45457328  0.55922518  0.04423390     0.16800
C1375       C  0.37562815  0.40831730  0.00593205    -0.01400
C1376       C  0.39572587  0.40289503  0.01605766     0.07200
C1377       C  0.39903473  0.38149060  0.02380775    -0.07400
C1378       C  0.38288297  0.36524272  0.02099814     0.04600
C1379       C  0.36287590  0.37041092  0.01016199    -0.14600
C1380       C  0.35950066  0.39215129  0.00301308    -0.07900
C1381       C  0.41405883  0.41893164  0.01719720     0.05500
C1382       C  0.42019877  0.42799596  0.03749248    -0.09100
C1383       C  0.43709404  0.44373891  0.03881957     0.00500
C1384       C  0.44819861  0.45054849  0.01943437     0.00400
C1385       C  0.44217832  0.44084637  0.99928211    -0.12600
C1386       C  0.42539740  0.42524596  0.99804645     0.00900
C1387       C  0.44234758  0.45258804  0.06021873     0.40200
C1388       C  0.42018989  0.41581957  0.97687081     0.36800
C1389       C  0.37127085  0.43038315  0.99832149     0.36500
C1390       C  0.38733833  0.34370408  0.02987028     0.37300
N1391       N  0.44647273  0.45958861  0.07743304    -0.43500
N1392       N  0.41602479  0.40832375  0.95988339    -0.44000
N1393       N  0.39121976  0.32651499  0.03704121    -0.41300
N1394       N  0.36782620  0.44807926  0.99225193    -0.42800
H1395       H  0.34438077  0.39654338  0.99467680     0.13400
H1396       H  0.41448941  0.37737787  0.03171544     0.09900
H1397       H  0.41155001  0.42296223  0.05227312     0.11000
H1398       H  0.45050866  0.44548776  0.98420469     0.16800
loop_ 
_geom_bond_atom_site_label_1 
_geom_bond_atom_site_label_2 
_geom_bond_distance 
_geom_bond_site_symmetry_2 
_ccdc_geom_bond_type 
O1           Cu9   2.015       .  S
O1           C11   1.278       .  A
O2           Cu9   2.016       .  S
O2           C12   1.279       .  A
O3           Cu9   2.017       .  S
O3           C13   1.278       .  A
O4           Cu9   2.014       .  S
O4           C14   1.279       .  A
O5          Cu10   1.988       .  S
O5           C14   1.275   1_556  A
O6          Cu10   1.988   1_554  S
O6           C13   1.277       .  A
O7          Cu10   2.006       .  S
O7           C12   1.278   1_556  A
O8          Cu10   2.010   1_554  S
O8           C11   1.279       .  A
Cu9         Cu10   2.367   1_554  S
C11        C1336   1.488       .  S
C12        C1360   1.491       .  S
C13        C1384   1.490       .  S
C14        C1307   1.476       .  S
O15         Cu23   2.009       .  S
O15          C25   1.278   1_545  A
O16         Cu23   2.005       .  S
O16          C26   1.278       .  A
O17         Cu23   2.003       .  S
O17          C27   1.277   1_545  A
O18         Cu23   2.000       .  S
O18          C28   1.277       .  A
O19         Cu24   1.998       .  S
O19          C28   1.277   1_565  A
O20         Cu24   1.999       .  S
O20          C27   1.277       .  A
O21         Cu24   2.002       .  S
O21          C26   1.277   1_565  A
O22         Cu24   1.997       .  S
O22          C25   1.276       .  A
Cu23        Cu24   2.368   1_545  S
C25        C1211   1.481       .  S
C26        C1288   1.489       .  S
C27        C1235   1.477       .  S
C28        C1264   1.486       .  S
O29         Cu37   2.005       .  S
O29          C39   1.278   1_655  A
O30         Cu37   2.007       .  S
O30          C40   1.278   1_655  A
O31         Cu37   2.006       .  S
O31          C41   1.279   1_655  A
O32         Cu37   2.005       .  S
O32          C42   1.277   1_655  A
O33         Cu38   2.013       .  S
O33          C42   1.279       .  A
O34         Cu38   2.012       .  S
O34          C41   1.278       .  A
O35         Cu38   2.006       .  S
O35          C40   1.278       .  A
O36         Cu38   2.005       .  S
O36          C39   1.277       .  A
Cu37        Cu38   2.367   1_655  S
C39        C1192   1.483       .  S
C40        C1115   1.486       .  S
C41        C1163   1.491       .  S
C42        C1139   1.491       .  S
N43          N44   1.321       .  A
N43          C47   1.344       .  A
N43         Cu51   2.069       .  S
N44          C45   1.345       .  A
N44         Cu50   2.074       .  S
C45          C46   1.387       .  A
C45          H48   1.082       .  S
C46        C1072   1.483       .  S
C46          C47   1.384       .  A
C47          H49   1.082       .  S
Cu50         N53   2.073       .  S
Cu51         N61   2.069       .  S
Cu52         N54   2.078       .  S
Cu52         N60   2.078       .  S
N53          N54   1.322       .  A
N53          C57   1.342       .  A
N54          C55   1.347       .  A
C55          C56   1.387       .  A
C55          H58   1.082       .  S
C56        C1096   1.484       .  S
C56          C57   1.385       .  A
C57          H59   1.081       .  S
N60          N61   1.321       .  A
N60          C64   1.344   1_556  A
N61          C62   1.344   1_556  A
C62          C63   1.387       .  A
C62          H65   1.080       .  S
C63        C1379   1.490       .  S
C63          C64   1.389       .  A
C64          H66   1.082       .  S
N67          N68   1.321       .  A
N67          C71   1.349       .  A
N67         Cu75   2.089       .  S
N68          C69   1.346       .  A
N68         Cu74   2.080       .  S
C69          C70   1.388       .  A
C69          H72   1.081       .  S
C70        C1043   1.494       .  S
C70          C71   1.390       .  A
C71          H73   1.082       .  S
Cu74         N77   2.080       .  S
Cu75         N85   2.089       .  S
Cu76         N78   2.081       .  S
Cu76         N84   2.081       .  S
N77          N78   1.322       .  A
N77          C81   1.344       .  A
N78          C79   1.348       .  A
C79          C80   1.387       .  A
C79          H82   1.082       .  S
C80        C1019   1.486       .  S
C80          C81   1.385       .  A
C81          H83   1.082       .  S
N84          N85   1.324       .  A
N84          C88   1.347       .  A
N85          C86   1.346       .  A
C86          C87   1.386       .  A
C86          H89   1.082       .  S
C87        C1355   1.488       .  S
C87          C88   1.386       .  A
C88          H90   1.082       .  S
N91          N92   1.322       .  A
N91          C95   1.346       .  A
N91         Cu99   2.081       .  S
N92          C93   1.343       .  A
N92         Cu98   2.064   1_565  S
C93          C94   1.384       .  A
C93          H96   1.082   1_565  S
C94        C1000   1.483       .  S
C94          C95   1.387       .  A
C95          H97   1.082       .  S
Cu98        N101   2.064       .  S
Cu99        N109   2.081       .  S
Cu100       N102   2.069   1_565  S
Cu100       N108   2.070       .  S
N101        N102   1.321       .  A
N101        C105   1.343       .  A
N102        C103   1.344       .  A
C103        C104   1.383       .  A
C103        H106   1.082       .  S
C104        C971   1.477       .  S
C104        C105   1.383       .  A
C105        H107   1.082       .  S
N108        N109   1.322       .  A
N108        C112   1.344       .  A
N109        C110   1.346       .  A
C110        C111   1.386       .  A
C110        H113   1.082       .  S
C111       C1240   1.482       .  S
C111        C112   1.384       .  A
C112        H114   1.082       .  S
N115        C120   1.355       .  A
N115        C119   1.353       .  A
N115        H147   1.041       .  S
N116        C123   1.351       .  A
N116        C124   1.352       .  A
N117        C122   1.353       .  A
N117        C121   1.354       .  A
N117        H148   1.033   1_554  S
N118        C125   1.350       .  A
N118        C126   1.348       .  A
C119        C127   1.389       .  A
C119        C135   1.420   1_565  A
C120        C136   1.416       .  A
C120        C128   1.385       .  A
C121        C129   1.387       .  A
C121        C138   1.414   1_554  A
C122        C137   1.413       .  A
C122        C130   1.387       .  A
C123        C135   1.416       .  A
C123        C131   1.389       .  A
C124        C138   1.411       .  A
C124        C132   1.384       .  A
C125        C133   1.386       .  A
C125        C136   1.408   1_554  A
C126        C134   1.387       .  A
C126        C137   1.408   1_565  A
C127        C128   1.375       .  A
C127        H139   1.081       .  S
C128        H140   1.082       .  S
C129        C130   1.373       .  A
C129        H141   1.082       .  S
C130        H142   1.082       .  S
C131        C132   1.370       .  A
C131        H143   1.081       .  S
C132        H144   1.082       .  S
C133        C134   1.371       .  A
C133        H145   1.082       .  S
C134        H146   1.082       .  S
C135        C976   1.488       .  S
C136       C1024   1.488       .  S
C137        C947   1.478       .  S
C138       C1067   1.490       .  S
N149        N150   1.321       .  A
N149        C153   1.343       .  A
N149       Cu157   2.060       .  S
N150        C151   1.342       .  A
N150       Cu156   2.059       .  S
C151        C152   1.380       .  A
C151        H154   1.082       .  S
C152        C952   1.470       .  S
C152        C153   1.381       .  A
C153        H155   1.082       .  S
Cu156       N159   2.059       .  S
Cu157       N167   2.061       .  S
Cu158       N160   2.068       .  S
Cu158       N166   2.068       .  S
N159        N160   1.321       .  A
N159        C163   1.342       .  A
N160        C161   1.344       .  A
C161        C162   1.384       .  A
C161        H164   1.082       .  S
C162        C923   1.475       .  S
C162        C163   1.381       .  A
C163        H165   1.082       .  S
N166        N167   1.321       .  A
N166        C170   1.343       .  A
N167        C168   1.341       .  A
C168        C169   1.384       .  A
C168        H171   1.081       .  S
C169       C1283   1.482       .  S
C169        C170   1.386       .  A
C170        H172   1.082       .  S
N173        N174   1.322       .  A
N173        C177   1.347       .  A
N173       Cu181   2.073   1_556  S
N174        C175   1.342       .  A
N174       Cu180   2.069       .  S
C175        C176   1.382       .  A
C175        H178   1.082       .  S
C176        C899   1.478       .  S
C176        C177   1.384       .  A
C177        H179   1.082   1_556  S
Cu180       N183   2.069       .  S
Cu181       N191   2.073       .  S
Cu182       N184   2.070       .  S
Cu182       N190   2.071   1_556  S
N183        N184   1.322       .  A
N183        C187   1.345       .  A
N184        C185   1.343       .  A
C185        C186   1.382       .  A
C185        H188   1.082       .  S
C186        C875   1.477       .  S
C186        C187   1.383       .  A
C187        H189   1.082       .  S
N190        N191   1.322       .  A
N190        C194   1.346       .  A
N191        C192   1.342       .  A
C192        C193   1.384       .  A
C192        H195   1.082       .  S
C193       C1331   1.482       .  S
C193        C194   1.386       .  A
C194        H196   1.082       .  S
N197        N198   1.323       .  A
N197        C201   1.345       .  A
N197       Cu205   2.070       .  S
N198        C199   1.343       .  A
N198       Cu204   2.069       .  S
C199        C200   1.381       .  A
C199        H202   1.082       .  S
C200        C856   1.473       .  S
C200        C201   1.382       .  A
C201        H203   1.082       .  S
Cu204       N207   2.069       .  S
Cu205       N215   2.070       .  S
Cu206       N208   2.068       .  S
Cu206       N214   2.068       .  S
N207        N208   1.321       .  A
N207        C211   1.344       .  A
N208        C209   1.343       .  A
C209        C210   1.384       .  A
C209        H212   1.082       .  S
C210        C827   1.482       .  S
C210        C211   1.386       .  A
C211        H213   1.082       .  S
N214        N215   1.321       .  A
N214        C218   1.344       .  A
N215        C216   1.344       .  A
C216        C217   1.385       .  A
C216        H219   1.082       .  S
C217       C1144   1.482       .  S
C217        C218   1.385       .  A
C218        H220   1.081       .  S
N221        C226   1.349       .  A
N221        C225   1.352       .  A
N221        H253   1.036       .  S
N222        C229   1.350       .  A
N222        C230   1.350       .  A
N223        C228   1.351       .  A
N223        C227   1.351       .  A
N223        H254   1.038   1_554  S
N224        C231   1.351   1_554  A
N224        C232   1.352       .  A
C225        C233   1.387       .  A
C225        C241   1.413       .  A
C226        C242   1.412       .  A
C226        C234   1.388       .  A
C227        C235   1.387       .  A
C227        C244   1.412   1_554  A
C228        C243   1.412   1_455  A
C228        C236   1.386       .  A
C229        C241   1.410   1_455  A
C229        C237   1.386       .  A
C230        C244   1.411       .  A
C230        C238   1.386       .  A
C231        C239   1.387   1_556  A
C231        C242   1.413       .  A
C232        C240   1.386       .  A
C232        C243   1.413       .  A
C233        C234   1.377       .  A
C233        H245   1.082       .  S
C234        H246   1.082       .  S
C235        C236   1.377       .  A
C235        H247   1.082       .  S
C236        H248   1.082       .  S
C237        C238   1.370       .  A
C237        H249   1.082       .  S
C238        H250   1.082       .  S
C239        C240   1.370       .  A
C239        H251   1.082       .  S
C240        H252   1.082       .  S
C241        C832   1.483       .  S
C242        C880   1.479       .  S
C243        C803   1.489       .  S
C244       C1091   1.483       .  S
N255        N256   1.321       .  A
N255        C259   1.344       .  A
N255       Cu263   2.070       .  S
N256        C257   1.345       .  A
N256       Cu262   2.077       .  S
C257        C258   1.388       .  A
C257        H260   1.081       .  S
C258        C808   1.488       .  S
C258        C259   1.386       .  A
C259        H261   1.082       .  S
Cu262       N265   2.077       .  S
Cu263       N273   2.069       .  S
Cu264       N266   2.079       .  S
Cu264       N272   2.078       .  S
N265        N266   1.322       .  A
N265        C269   1.344       .  A
N266        C267   1.346       .  A
C267        C268   1.388       .  A
C267        H270   1.081       .  S
C268        C784   1.489       .  S
C268        C269   1.387       .  A
C269        H271   1.082       .  S
N272        N273   1.321       .  A
N272        C276   1.345       .  A
N273        C274   1.344       .  A
C274        C275   1.385       .  A
C274        H277   1.081       .  S
C275       C1187   1.484       .  S
C275        C276   1.386       .  A
C276        H278   1.082       .  S
N279        N280   1.322       .  A
N279        C283   1.343       .  A
N279       Cu287   2.072       .  S
N280        C281   1.344       .  A
N280       Cu286   2.072       .  S
C281        C282   1.385       .  A
C281        H284   1.082       .  S
C282        C755   1.484       .  S
C282        C283   1.386       .  A
C283        H285   1.081       .  S
Cu286       N289   2.072       .  S
Cu287       N297   2.072       .  S
Cu288       N290   2.074       .  S
Cu288       N296   2.074       .  S
N289        N290   1.320       .  A
N289        C293   1.344       .  A
N290        C291   1.345       .  A
C291        C292   1.387       .  A
C291        H294   1.082       .  S
C292        C731   1.489       .  S
C292        C293   1.388       .  A
C293        H295   1.081       .  S
N296        N297   1.322       .  A
N296        C300   1.343       .  A
N297        C298   1.347       .  A
C298        C299   1.385       .  A
C298        H301   1.082       .  S
C299       C1168   1.482       .  S
C299        C300   1.384       .  A
C300        H302   1.082       .  S
N303        N304   1.321   1_545  A
N303        C307   1.346       .  A
N303       Cu311   2.077       .  S
N304        C305   1.344       .  A
N304       Cu310   2.075       .  S
C305        C306   1.387       .  A
C305        H308   1.082       .  S
C306        C712   1.490       .  S
C306        C307   1.388   1_565  A
C307        H309   1.081       .  S
Cu310       N313   2.074       .  S
Cu311       N321   2.076       .  S
Cu312       N314   2.074       .  S
Cu312       N320   2.074   1_565  S
N313        N314   1.321       .  A
N313        C317   1.344       .  A
N314        C315   1.346       .  A
C315        C316   1.388       .  A
C315        H318   1.082       .  S
C316        C683   1.488       .  S
C316        C317   1.387       .  A
C317        H319   1.081       .  S
N320        N321   1.322       .  A
N320        C324   1.343       .  A
N321        C322   1.345       .  A
C322        C323   1.387       .  A
C322        H325   1.081       .  S
C323       C1259   1.486       .  S
C323        C324   1.386       .  A
C324        H326   1.082       .  S
N327        C332   1.352       .  A
N327        C331   1.350       .  A
N327        H359   1.038       .  S
N328        C335   1.350       .  A
N328        C336   1.351       .  A
N329        C334   1.352       .  A
N329        C333   1.354       .  A
N329        H360   1.039       .  S
N330        C337   1.353       .  A
N330        C338   1.351       .  A
C331        C339   1.387       .  A
C331        C347   1.411   1_565  A
C332        C348   1.412       .  A
C332        C340   1.387       .  A
C333        C341   1.387       .  A
C333        C350   1.415       .  A
C334        C349   1.414   1_545  A
C334        C342   1.387       .  A
C335        C347   1.412       .  A
C335        C343   1.386       .  A
C336        C350   1.414   1_455  A
C336        C344   1.387       .  A
C337        C345   1.386       .  A
C337        C348   1.414   1_655  A
C338        C346   1.386       .  A
C338        C349   1.414       .  A
C339        C340   1.376       .  A
C339        H351   1.082       .  S
C340        H352   1.082       .  S
C341        C342   1.377       .  A
C341        H353   1.082       .  S
C342        H354   1.082       .  S
C343        C344   1.373       .  A
C343        H355   1.082       .  S
C344        H356   1.082       .  S
C345        C346   1.374       .  A
C345        H357   1.082       .  S
C346        H358   1.082       .  S
C347        C928   1.482       .  S
C348        C736   1.492       .  S
C349        C688   1.490       .  S
C350        C779   1.494       .  S
N361        N362   1.320       .  A
N361        C365   1.346       .  A
N361       Cu369   2.069       .  S
N362        C363   1.341       .  A
N362       Cu368   2.062       .  S
C363        C364   1.385       .  A
C363        H366   1.082       .  S
C364        C635   1.486       .  S
C364        C365   1.388       .  A
C365        H367   1.081       .  S
Cu368       N371   2.063       .  S
Cu369       N379   2.069       .  S
Cu370       N372   2.063       .  S
Cu370       N378   2.063       .  S
N371        N372   1.322       .  A
N371        C375   1.343       .  A
N372        C373   1.343       .  A
C373        C374   1.381       .  A
C373        H376   1.082       .  S
C374        C659   1.470       .  S
C374        C375   1.380       .  A
C375        H377   1.082       .  S
N378        N379   1.322       .  A
N378        C382   1.343       .  A
N379        C380   1.343       .  A
C380        C381   1.382       .  A
C380        H383   1.082       .  S
C381       C1312   1.475   1_556  S
C381        C382   1.382       .  A
C382        H384   1.082       .  S
N385        N386   1.321       .  A
N385        C389   1.344   1_455  A
N385       Cu393   2.069       .  S
N386        C387   1.345   1_455  A
N386       Cu392   2.074       .  S
C387        C388   1.386       .  A
C387        H390   1.082       .  S
C388        C592   1.483       .  S
C388        C389   1.385       .  A
C389        H391   1.082   1_655  S
Cu392       N395   2.075       .  S
Cu393       N403   2.069       .  S
Cu394       N396   2.083       .  S
Cu394       N402   2.083       .  S
N395        N396   1.323       .  A
N395        C399   1.346       .  A
N396        C397   1.346       .  A
C397        C398   1.386       .  A
C397        H400   1.082       .  S
C398        C611   1.484       .  S
C398        C399   1.384       .  A
C399        H401   1.082       .  S
N402        N403   1.322       .  A
N402        C406   1.346       .  A
N403        C404   1.344       .  A
C404        C405   1.383       .  A
C404        H407   1.082       .  S
C405       C1120   1.482       .  S
C405        C406   1.386       .  A
C406        H408   1.082       .  S
N409        N410   1.322   1_545  A
N409        C413   1.342   1_545  A
N409       Cu417   2.061       .  S
N410        C411   1.342       .  A
N410       Cu416   2.065       .  S
C411        C412   1.383       .  A
C411        H414   1.082       .  S
C412        C539   1.476       .  S
C412        C413   1.382       .  A
C413        H415   1.081   1_565  S
Cu416       N419   2.064       .  S
Cu417       N427   2.061   1_545  S
Cu418       N420   2.064       .  S
Cu418       N426   2.064       .  S
N419        N420   1.320       .  A
N419        C423   1.343       .  A
N420        C421   1.343       .  A
C421        C422   1.383       .  A
C421        H424   1.082       .  S
C422        C563   1.479       .  S
C422        C423   1.386       .  A
C423        H425   1.081       .  S
N426        N427   1.320       .  A
N426        C430   1.343       .  A
N427        C428   1.343       .  A
C428        C429   1.383       .  A
C428        H431   1.082       .  S
C429       C1216   1.476       .  S
C429        C430   1.383       .  A
C430        H432   1.082       .  S
N433        C438   1.352       .  A
N433        C437   1.352       .  A
N433        H465   1.041       .  S
N434        C441   1.350   1_554  A
N434        C442   1.351       .  A
N435        C440   1.353       .  A
N435        C439   1.355       .  A
N435        H466   1.042   1_554  S
N436        C443   1.349       .  A
N436        C444   1.349       .  A
C437        C445   1.387       .  A
C437        C453   1.412       .  A
C438        C454   1.414       .  A
C438        C446   1.388       .  A
C439        C447   1.387       .  A
C439        C456   1.416   1_545  A
C440        C455   1.413   1_554  A
C440        C448   1.386       .  A
C441        C453   1.411       .  A
C441        C449   1.386   1_556  A
C442        C456   1.414       .  A
C442        C450   1.386       .  A
C443        C451   1.386       .  A
C443        C454   1.410   1_545  A
C444        C452   1.386       .  A
C444        C455   1.410       .  A
C445        C446   1.373       .  A
C445        H457   1.082       .  S
C446        H458   1.082       .  S
C447        C448   1.373       .  A
C447        H459   1.082       .  S
C448        H460   1.082       .  S
C449        C450   1.374       .  A
C449        H461   1.082       .  S
C450        H462   1.082       .  S
C451        C452   1.374       .  A
C451        H463   1.083       .  S
C452        H464   1.082       .  S
C453        C664   1.482       .  S
C454        C568   1.481       .  S
C455        C904   1.485       .  S
C456        C707   1.497       .  S
N467        C472   1.353       .  A
N467        C471   1.355       .  A
N467        H499   1.040       .  S
N468        C475   1.350       .  A
N468        C476   1.349       .  A
N469        C474   1.352       .  A
N469        C473   1.351       .  A
N469        H500   1.039       .  S
N470        C477   1.350       .  A
N470        C478   1.352       .  A
C471        C479   1.386       .  A
C471        C487   1.415       .  A
C472        C488   1.416       .  A
C472        C480   1.388       .  A
C473        C481   1.387       .  A
C473        C490   1.412   1_655  A
C474        C489   1.413   1_545  A
C474        C482   1.387       .  A
C475        C487   1.409   1_545  A
C475        C483   1.385       .  A
C476        C490   1.409       .  A
C476        C484   1.386       .  A
C477        C485   1.387       .  A
C477        C488   1.413   1_655  A
C478        C486   1.385       .  A
C478        C489   1.412       .  A
C479        C480   1.372       .  A
C479        H491   1.082       .  S
C480        H492   1.082       .  S
C481        C482   1.373       .  A
C481        H493   1.082       .  S
C482        H494   1.082       .  S
C483        C484   1.372       .  A
C483        H495   1.082       .  S
C484        H496   1.082       .  S
C485        C486   1.373       .  A
C485        H497   1.082       .  S
C486        H498   1.082       .  S
C487        C995   1.491   1_565  S
C488        C616   1.489       .  S
C489        C544   1.486       .  S
C490        C851   1.478       .  S
N501        C506   1.355       .  A
N501        C505   1.352       .  A
N501        H533   1.040       .  S
N502        C509   1.351       .  A
N502        C510   1.353       .  A
N503        C508   1.353       .  A
N503        C507   1.354       .  A
N503        H534   1.040   1_554  S
N504        C511   1.351       .  A
N504        C512   1.350       .  A
C505        C513   1.388       .  A
C505        C521   1.416       .  A
C506        C522   1.415       .  A
C506        C514   1.386       .  A
C507        C515   1.387       .  A
C507        C524   1.416   1_554  A
C508        C523   1.415   1_455  A
C508        C516   1.387       .  A
C509        C521   1.414   1_455  A
C509        C517   1.387       .  A
C510        C524   1.414       .  A
C510        C518   1.385       .  A
C511        C519   1.386       .  A
C511        C522   1.411   1_554  A
C512        C520   1.386       .  A
C512        C523   1.410       .  A
C513        C514   1.376       .  A
C513        H525   1.082       .  S
C514        H526   1.082       .  S
C515        C516   1.375       .  A
C515        H527   1.082       .  S
C516        H528   1.082       .  S
C517        C518   1.375       .  A
C517        H529   1.082       .  S
C518        H530   1.082       .  S
C519        C520   1.373       .  A
C519        H531   1.082       .  S
C520        H532   1.082       .  S
C521        C587   1.487       .  S
C522        C640   1.492       .  S
C523        C760   1.487       .  S
C524       C1048   1.499       .  S
C535        C536   1.411   1_545  A
C535        C540   1.396       .  A
C535        C549   1.444       .  S
C536        C541   1.483       .  S
C536        C537   1.403       .  A
C537        C538   1.400       .  A
C537        H556   1.085       .  S
C538        C539   1.413       .  A
C538        C550   1.444       .  S
C539        C540   1.402   1_565  A
C540        H555   1.085       .  S
C541        C542   1.403       .  A
C541        C546   1.412   1_565  A
C542        C543   1.397       .  A
C542        H557   1.085       .  S
C543        C544   1.409       .  A
C543        C547   1.444       .  S
C544        C545   1.403   1_565  A
C545        C546   1.401       .  A
C545        H558   1.084       .  S
C546        C548   1.444       .  S
C547        N551   1.157       .  T
C548        N552   1.157       .  T
C549        N554   1.157       .  T
C550        N553   1.157       .  T
C559        C560   1.411   1_545  A
C559        C564   1.400       .  A
C559        C573   1.444       .  S
C560        C565   1.483       .  S
C560        C561   1.402       .  A
C561        C562   1.396       .  A
C561        H580   1.085       .  S
C562        C563   1.413       .  A
C562        C574   1.444       .  S
C563        C564   1.406   1_565  A
C564        H579   1.084       .  S
C565        C566   1.404       .  A
C565        C570   1.414   1_565  A
C566        C567   1.399       .  A
C566        H581   1.084       .  S
C567        C568   1.408       .  A
C567        C571   1.443       .  S
C568        C569   1.400   1_565  A
C569        C570   1.395       .  A
C569        H582   1.085       .  S
C570        C572   1.445       .  S
C571        N575   1.157       .  T
C572        N576   1.157       .  T
C573        N578   1.157       .  T
C574        N577   1.157       .  T
C583        C584   1.410       .  A
C583        C588   1.400       .  A
C583        C597   1.443       .  S
C584        C589   1.482       .  S
C584        C585   1.403   1_655  A
C585        C586   1.400       .  A
C585        H604   1.085       .  S
C586        C587   1.411   1_455  A
C586        C598   1.444       .  S
C587        C588   1.403       .  A
C588        H603   1.085       .  S
C589        C590   1.403       .  A
C589        C594   1.408   1_655  A
C590        C591   1.402       .  A
C590        H605   1.085       .  S
C591        C592   1.414       .  A
C591        C595   1.444       .  S
C592        C593   1.405   1_655  A
C593        C594   1.399       .  A
C593        H606   1.084       .  S
C594        C596   1.444       .  S
C595        N599   1.157       .  T
C596        N600   1.157       .  T
C597        N602   1.157       .  T
C598        N601   1.157       .  T
C607        C608   1.412       .  A
C607        C612   1.402       .  A
C607        C621   1.445       .  S
C608        C613   1.485       .  S
C608        C609   1.401   1_455  A
C609        C610   1.401       .  A
C609        H628   1.085       .  S
C610        C611   1.414   1_655  A
C610        C622   1.443       .  S
C611        C612   1.405       .  A
C612        H627   1.085       .  S
C613        C614   1.405       .  A
C613        C618   1.411   1_455  A
C614        C615   1.402       .  A
C614        H629   1.085       .  S
C615        C616   1.411       .  A
C615        C619   1.444       .  S
C616        C617   1.402   1_455  A
C617        C618   1.398       .  A
C617        H630   1.085       .  S
C618        C620   1.443       .  S
C619        N623   1.157       .  T
C620        N624   1.157       .  T
C621        N626   1.157       .  T
C622        N625   1.157       .  T
C631        C632   1.409       .  A
C631        C636   1.396       .  A
C631        C645   1.444       .  S
C632        C637   1.487       .  S
C632        C633   1.404   1_556  A
C633        C634   1.404       .  A
C633        H652   1.085       .  S
C634        C635   1.416   1_554  A
C634        C646   1.444       .  S
C635        C636   1.405       .  A
C636        H651   1.084       .  S
C637        C638   1.403       .  A
C637        C642   1.412       .  A
C638        C639   1.398       .  A
C638        H653   1.085   1_556  S
C639        C640   1.412       .  A
C639        C643   1.444   1_556  S
C640        C641   1.404       .  A
C641        C642   1.404       .  A
C641        H654   1.084       .  S
C642        C644   1.444       .  S
C643        N647   1.157       .  T
C644        N648   1.157       .  T
C645        N650   1.157       .  T
C646        N649   1.158       .  T
C655        C656   1.413   1_554  A
C655        C660   1.398       .  A
C655        C669   1.445       .  S
C656        C661   1.484       .  S
C656        C657   1.404       .  A
C657        C658   1.399       .  A
C657        H676   1.085       .  S
C658        C659   1.409       .  A
C658        C670   1.444       .  S
C659        C660   1.401   1_556  A
C660        H675   1.085       .  S
C661        C662   1.404       .  A
C661        C666   1.413       .  A
C662        C663   1.397       .  A
C662        H677   1.085       .  S
C663        C664   1.408       .  A
C663        C667   1.444       .  S
C664        C665   1.401       .  A
C665        C666   1.400       .  A
C665        H678   1.085       .  S
C666        C668   1.443       .  S
C667        N671   1.157       .  T
C668        N672   1.157       .  T
C669        N674   1.157       .  T
C670        N673   1.157       .  T
C679        C680   1.408   1_545  A
C679        C684   1.402       .  A
C679        C693   1.444       .  S
C680        C685   1.484       .  S
C680        C681   1.401       .  A
C681        C682   1.401       .  A
C681        H700   1.085       .  S
C682        C683   1.416       .  A
C682        C694   1.444       .  S
C683        C684   1.407   1_565  A
C684        H699   1.084       .  S
C685        C686   1.403       .  A
C685        C690   1.410   1_565  A
C686        C687   1.401       .  A
C686        H701   1.085       .  S
C687        C688   1.411       .  A
C687        C691   1.443       .  S
C688        C689   1.404   1_565  A
C689        C690   1.399       .  A
C689        H702   1.085       .  S
C690        C692   1.444       .  S
C691        N695   1.157       .  T
C692        N696   1.157       .  T
C693        N698   1.157       .  T
C694        N697   1.157       .  T
C703        C704   1.412   1_545  A
C703        C708   1.403       .  A
C703        C717   1.444       .  S
C704        C709   1.489       .  S
C704        C705   1.403       .  A
C705        C706   1.400       .  A
C705        H724   1.085       .  S
C706        C707   1.413       .  A
C706        C718   1.444       .  S
C707        C708   1.406   1_565  A
C708        H723   1.085       .  S
C709        C710   1.403       .  A
C709        C714   1.410   1_565  A
C710        C711   1.403       .  A
C710        H725   1.085       .  S
C711        C712   1.417       .  A
C711        C715   1.443       .  S
C712        C713   1.406   1_565  A
C713        C714   1.400       .  A
C713        H726   1.084       .  S
C714        C716   1.444       .  S
C715        N719   1.157       .  T
C716        N720   1.157       .  T
C717        N722   1.157       .  T
C718        N721   1.157       .  T
C727        C728   1.409       .  A
C727        C732   1.403       .  A
C727        C741   1.443       .  S
C728        C733   1.484       .  S
C728        C729   1.401   1_455  A
C729        C730   1.399       .  A
C729        H748   1.085       .  S
C730        C731   1.416   1_655  A
C730        C742   1.444       .  S
C731        C732   1.408       .  A
C732        H747   1.084       .  S
C733        C734   1.401       .  A
C733        C738   1.412   1_455  A
C734        C735   1.397       .  A
C734        H749   1.085       .  S
C735        C736   1.412       .  A
C735        C739   1.443       .  S
C736        C737   1.405   1_455  A
C737        C738   1.404       .  A
C737        H750   1.084       .  S
C738        C740   1.443       .  S
C739        N743   1.157       .  T
C740        N744   1.157       .  T
C741        N746   1.157       .  T
C742        N745   1.157       .  T
C751        C752   1.411   1_455  A
C751        C756   1.400       .  A
C751        C765   1.444       .  S
C752        C757   1.484       .  S
C752        C753   1.401       .  A
C753        C754   1.399       .  A
C753        H772   1.085       .  S
C754        C755   1.415   1_655  A
C754        C766   1.443       .  S
C755        C756   1.405       .  A
C756        H771   1.084       .  S
C757        C758   1.405   1_655  A
C757        C762   1.411       .  A
C758        C759   1.401       .  A
C758        H773   1.085       .  S
C759        C760   1.409   1_455  A
C759        C763   1.443       .  S
C760        C761   1.403       .  A
C761        C762   1.398       .  A
C761        H774   1.085       .  S
C762        C764   1.444       .  S
C763        N767   1.157       .  T
C764        N768   1.157       .  T
C765        N770   1.157       .  T
C766        N769   1.157       .  T
C775        C776   1.412       .  A
C775        C780   1.401       .  A
C775        C789   1.445       .  S
C776        C781   1.488       .  S
C776        C777   1.403   1_655  A
C777        C778   1.401       .  A
C777        H796   1.085       .  S
C778        C779   1.412   1_455  A
C778        C790   1.443       .  S
C779        C780   1.405       .  A
C780        H795   1.085       .  S
C781        C782   1.402       .  A
C781        C786   1.411       .  A
C782        C783   1.403       .  A
C782        H797   1.085       .  S
C783        C784   1.417       .  A
C783        C787   1.443       .  S
C784        C785   1.407       .  A
C785        C786   1.400       .  A
C785        H798   1.084   1_655  S
C786        C788   1.445   1_655  S
C787        N791   1.157       .  T
C788        N792   1.157       .  T
C789        N794   1.157       .  T
C790        N793   1.157       .  T
C799        C800   1.412       .  A
C799        C804   1.401       .  A
C799        C813   1.443       .  S
C800        C805   1.485       .  S
C800        C801   1.403       .  A
C801        C802   1.399       .  A
C801        H820   1.085   1_655  S
C802        C803   1.411       .  A
C802        C814   1.445   1_655  S
C803        C804   1.403       .  A
C804        H819   1.085       .  S
C805        C806   1.402       .  A
C805        C810   1.409       .  A
C806        C807   1.402       .  A
C806        H821   1.085       .  S
C807        C808   1.415       .  A
C807        C811   1.444       .  S
C808        C809   1.407       .  A
C809        C810   1.401       .  A
C809        H822   1.084       .  S
C810        C812   1.444   1_655  S
C811        N815   1.157       .  T
C812        N816   1.157       .  T
C813        N818   1.157       .  T
C814        N817   1.157       .  T
C823        C824   1.410   1_655  A
C823        C828   1.398       .  A
C823        C837   1.444       .  S
C824        C829   1.485       .  S
C824        C825   1.404       .  A
C825        C826   1.401       .  A
C825        H844   1.085       .  S
C826        C827   1.413       .  A
C826        C838   1.444       .  S
C827        C828   1.404   1_455  A
C828        H843   1.084       .  S
C829        C830   1.405   1_455  A
C829        C834   1.413       .  A
C830        C831   1.399       .  A
C830        H845   1.085       .  S
C831        C832   1.408       .  A
C831        C835   1.444       .  S
C832        C833   1.401   1_655  A
C833        C834   1.399       .  A
C833        H846   1.085       .  S
C834        C836   1.444       .  S
C835        N839   1.157       .  T
C836        N840   1.157       .  T
C837        N842   1.157       .  T
C838        N841   1.157       .  T
C847        C848   1.412   1_655  A
C847        C852   1.398       .  A
C847        C861   1.443       .  S
C848        C853   1.479       .  S
C848        C849   1.403       .  A
C849        C850   1.396       .  A
C849        H868   1.085       .  S
C850        C851   1.408       .  A
C850        C862   1.444       .  S
C851        C852   1.400   1_455  A
C852        H867   1.085       .  S
C853        C854   1.401   1_455  A
C853        C858   1.411       .  A
C854        C855   1.397       .  A
C854        H869   1.085       .  S
C855        C856   1.411   1_655  A
C855        C859   1.444       .  S
C856        C857   1.403       .  A
C857        C858   1.400       .  A
C857        H870   1.085       .  S
C858        C860   1.444       .  S
C859        N863   1.157       .  T
C860        N864   1.157       .  T
C861        N866   1.157       .  T
C862        N865   1.157       .  T
C871        C872   1.411       .  A
C871        C876   1.397       .  A
C871        C885   1.445   1_556  S
C872        C877   1.482       .  S
C872        C873   1.403       .  A
C873        C874   1.399       .  A
C873        H892   1.085       .  S
C874        C875   1.412       .  A
C874        C886   1.444       .  S
C875        C876   1.404       .  A
C876        H891   1.085   1_556  S
C877        C878   1.403       .  A
C877        C882   1.414       .  A
C878        C879   1.396       .  A
C878        H893   1.085       .  S
C879        C880   1.408       .  A
C879        C883   1.444       .  S
C880        C881   1.400       .  A
C881        C882   1.398       .  A
C881        H894   1.085       .  S
C882        C884   1.444       .  S
C883        N887   1.157       .  T
C884        N888   1.157       .  T
C885        N890   1.157       .  T
C886        N889   1.157       .  T
C895        C896   1.414   1_554  A
C895        C900   1.404       .  A
C895        C909   1.444       .  S
C896        C901   1.490       .  S
C896        C897   1.403       .  A
C897        C898   1.397       .  A
C897        H916   1.085       .  S
C898        C899   1.410       .  A
C898        C910   1.444       .  S
C899        C900   1.404   1_556  A
C900        H915   1.085       .  S
C901        C902   1.405       .  A
C901        C906   1.415       .  A
C902        C903   1.401       .  A
C902        H917   1.084       .  S
C903        C904   1.409       .  A
C903        C907   1.443       .  S
C904        C905   1.400       .  A
C905        C906   1.399       .  A
C905        H918   1.085       .  S
C906        C908   1.444       .  S
C907        N911   1.157   1_556  T
C908        N912   1.157       .  T
C909        N914   1.157       .  T
C910        N913   1.157       .  T
C919        C920   1.409       .  A
C919        C924   1.397       .  A
C919        C933   1.444       .  S
C920        C925   1.477       .  S
C920        C921   1.401   1_545  A
C921        C922   1.399       .  A
C921        H940   1.085       .  S
C922        C923   1.412   1_565  A
C922        C934   1.444       .  S
C923        C924   1.403       .  A
C924        H939   1.085       .  S
C925        C926   1.401   1_545  A
C925        C930   1.410       .  A
C926        C927   1.396       .  A
C926        H941   1.085       .  S
C927        C928   1.410   1_565  A
C927        C931   1.443       .  S
C928        C929   1.402       .  A
C929        C930   1.400       .  A
C929        H942   1.084       .  S
C930        C932   1.443       .  S
C931        N935   1.157       .  T
C932        N936   1.157       .  T
C933        N938   1.157       .  T
C934        N937   1.157       .  T
C943        C944   1.415       .  A
C943        C948   1.399       .  A
C943        C957   1.444       .  S
C944        C949   1.485       .  S
C944        C945   1.405   1_545  A
C945        C946   1.394       .  A
C945        H964   1.084       .  S
C946        C947   1.407   1_565  A
C946        C958   1.444       .  S
C947        C948   1.399       .  A
C948        H963   1.085       .  S
C949        C950   1.404       .  A
C949        C954   1.414   1_545  A
C950        C951   1.396       .  A
C950        H965   1.084       .  S
C951        C952   1.409       .  A
C951        C955   1.444       .  S
C952        C953   1.401   1_545  A
C953        C954   1.398       .  A
C953        H966   1.085       .  S
C954        C956   1.445       .  S
C955        N959   1.157       .  T
C956        N960   1.157       .  T
C957        N962   1.157       .  T
C958        N961   1.157       .  T
C967        C968   1.410   1_565  A
C967        C972   1.399       .  A
C967        C981   1.444       .  S
C968        C973   1.483       .  S
C968        C969   1.403       .  A
C969        C970   1.399       .  A
C969        H988   1.085       .  S
C970        C971   1.412       .  A
C970        C982   1.444       .  S
C971        C972   1.403   1_545  A
C972        H987   1.085       .  S
C973        C974   1.403       .  A
C973        C978   1.411       .  A
C974        C975   1.399       .  A
C974        H989   1.085       .  S
C975        C976   1.411       .  A
C975        C979   1.444       .  S
C976        C977   1.403       .  A
C977        C978   1.398       .  A
C977        H990   1.085   1_545  S
C978        C980   1.444   1_545  S
C979        N983   1.157       .  T
C980        N984   1.157       .  T
C981        N986   1.157       .  T
C982        N985   1.157       .  T
C991        C992   1.412   1_545  A
C991        C996   1.399       .  A
C991       C1005   1.444       .  S
C992        C997   1.486       .  S
C992        C993   1.404       .  A
C993        C994   1.401       .  A
C993       H1012   1.085       .  S
C994        C995   1.411   1_565  A
C994       C1006   1.443       .  S
C995        C996   1.404       .  A
C996       H1011   1.085       .  S
C997        C998   1.403       .  A
C997       C1002   1.410   1_565  A
C998        C999   1.400       .  A
C998       H1013   1.085       .  S
C999       C1000   1.414       .  A
C999       C1003   1.444       .  S
C1000      C1001   1.405   1_565  A
C1001      C1002   1.401       .  A
C1001      H1014   1.084       .  S
C1002      C1004   1.443       .  S
C1003      N1007   1.157       .  T
C1004      N1008   1.157       .  T
C1005      N1010   1.157       .  T
C1006      N1009   1.157       .  T
C1015      C1016   1.412       .  A
C1015      C1020   1.405       .  A
C1015      C1029   1.444   1_556  S
C1016      C1021   1.491       .  S
C1016      C1017   1.403       .  A
C1017      C1018   1.399       .  A
C1017      H1036   1.085       .  S
C1018      C1019   1.414       .  A
C1018      C1030   1.444       .  S
C1019      C1020   1.406       .  A
C1020      H1035   1.084   1_556  S
C1021      C1022   1.406       .  A
C1021      C1026   1.414       .  A
C1022      C1023   1.402       .  A
C1022      H1037   1.084       .  S
C1023      C1024   1.408       .  A
C1023      C1027   1.443       .  S
C1024      C1025   1.402       .  A
C1025      C1026   1.400       .  A
C1025      H1038   1.085   1_556  S
C1026      C1028   1.444   1_556  S
C1027      N1031   1.157       .  T
C1028      N1032   1.157       .  T
C1029      N1034   1.157       .  T
C1030      N1033   1.157       .  T
C1039      C1040   1.410       .  A
C1039      C1044   1.405       .  A
C1039      C1053   1.443       .  S
C1040      C1045   1.492       .  S
C1040      C1041   1.403       .  A
C1041      C1042   1.404       .  A
C1041      H1060   1.085   1_556  S
C1042      C1043   1.417       .  A
C1042      C1054   1.444   1_556  S
C1043      C1044   1.408       .  A
C1044      H1059   1.084       .  S
C1045      C1046   1.404       .  A
C1045      C1050   1.411       .  A
C1046      C1047   1.405       .  A
C1046      H1061   1.084   1_556  S
C1047      C1048   1.413       .  A
C1047      C1051   1.444   1_556  S
C1048      C1049   1.405       .  A
C1049      C1050   1.404       .  A
C1049      H1062   1.085       .  S
C1050      C1052   1.444       .  S
C1051      N1055   1.157       .  T
C1052      N1056   1.157       .  T
C1053      N1058   1.157       .  T
C1054      N1057   1.157       .  T
C1063      C1064   1.412       .  A
C1063      C1068   1.399       .  A
C1063      C1077   1.444       .  S
C1064      C1069   1.488       .  S
C1064      C1065   1.406       .  A
C1065      C1066   1.402       .  A
C1065      H1084   1.084   1_556  S
C1066      C1067   1.410       .  A
C1066      C1078   1.443   1_556  S
C1067      C1068   1.403       .  A
C1068      H1083   1.085       .  S
C1069      C1070   1.404       .  A
C1069      C1074   1.411       .  A
C1070      C1071   1.400       .  A
C1070      H1085   1.085   1_556  S
C1071      C1072   1.413       .  A
C1071      C1075   1.444   1_556  S
C1072      C1073   1.405       .  A
C1073      C1074   1.401       .  A
C1073      H1086   1.085       .  S
C1074      C1076   1.444       .  S
C1075      N1079   1.157       .  T
C1076      N1080   1.157       .  T
C1077      N1082   1.157       .  T
C1078      N1081   1.157       .  T
C1087      C1088   1.410       .  A
C1087      C1092   1.397       .  A
C1087      C1101   1.444   1_556  S
C1088      C1093   1.477       .  S
C1088      C1089   1.401       .  A
C1089      C1090   1.399       .  A
C1089      H1108   1.085       .  S
C1090      C1091   1.411       .  A
C1090      C1102   1.443       .  S
C1091      C1092   1.402       .  A
C1092      H1107   1.085   1_556  S
C1093      C1094   1.399       .  A
C1093      C1098   1.407       .  A
C1094      C1095   1.397       .  A
C1094      H1109   1.085       .  S
C1095      C1096   1.415       .  A
C1095      C1099   1.443       .  S
C1096      C1097   1.408       .  A
C1097      C1098   1.402       .  A
C1097      H1110   1.084   1_556  S
C1098      C1100   1.444   1_556  S
C1099      N1103   1.157       .  T
C1100      N1104   1.157       .  T
C1101      N1106   1.157       .  T
C1102      N1105   1.157       .  T
C1111      C1112   1.408   1_655  A
C1111      C1116   1.400       .  A
C1111      C1125   1.444       .  S
C1112      C1117   1.481       .  S
C1112      C1113   1.400       .  A
C1113      C1114   1.400       .  A
C1113      H1132   1.085       .  S
C1114      C1115   1.417       .  A
C1114      C1126   1.444       .  S
C1115      C1116   1.407   1_455  A
C1116      H1131   1.084       .  S
C1117      C1118   1.401       .  A
C1117      C1122   1.409       .  A
C1118      C1119   1.401       .  A
C1118      H1133   1.085       .  S
C1119      C1120   1.415       .  A
C1119      C1123   1.444       .  S
C1120      C1121   1.405       .  A
C1121      C1122   1.400       .  A
C1121      H1134   1.084   1_455  S
C1122      C1124   1.444   1_455  S
C1123      N1127   1.157       .  T
C1124      N1128   1.157       .  T
C1125      N1130   1.157       .  T
C1126      N1129   1.157       .  T
C1135      C1136   1.407       .  A
C1135      C1140   1.400       .  A
C1135      C1149   1.444       .  S
C1136      C1141   1.482       .  S
C1136      C1137   1.400   1_455  A
C1137      C1138   1.401       .  A
C1137      H1156   1.085       .  S
C1138      C1139   1.420   1_655  A
C1138      C1150   1.444       .  S
C1139      C1140   1.409       .  A
C1140      H1155   1.084       .  S
C1141      C1142   1.402       .  A
C1141      C1146   1.408   1_455  A
C1142      C1143   1.401       .  A
C1142      H1157   1.085       .  S
C1143      C1144   1.415       .  A
C1143      C1147   1.444       .  S
C1144      C1145   1.405   1_455  A
C1145      C1146   1.399       .  A
C1145      H1158   1.084       .  S
C1146      C1148   1.444       .  S
C1147      N1151   1.157       .  T
C1148      N1152   1.157       .  T
C1149      N1154   1.157       .  T
C1150      N1153   1.157       .  T
C1159      C1160   1.410   1_655  A
C1159      C1164   1.398       .  A
C1159      C1173   1.444       .  S
C1160      C1165   1.489       .  S
C1160      C1161   1.404       .  A
C1161      C1162   1.404       .  A
C1161      H1180   1.085       .  S
C1162      C1163   1.418       .  A
C1162      C1174   1.444       .  S
C1163      C1164   1.407   1_455  A
C1164      H1179   1.084       .  S
C1165      C1166   1.403   1_455  A
C1165      C1170   1.412       .  A
C1166      C1167   1.400       .  A
C1166      H1181   1.085       .  S
C1167      C1168   1.413   1_655  A
C1167      C1171   1.444       .  S
C1168      C1169   1.404       .  A
C1169      C1170   1.403       .  A
C1169      H1182   1.085       .  S
C1170      C1172   1.444       .  S
C1171      N1175   1.157       .  T
C1172      N1176   1.157       .  T
C1173      N1178   1.157       .  T
C1174      N1177   1.157       .  T
C1183      C1184   1.407   1_455  A
C1183      C1188   1.399       .  A
C1183      C1197   1.444       .  S
C1184      C1189   1.480       .  S
C1184      C1185   1.401       .  A
C1185      C1186   1.401       .  A
C1185      H1204   1.085       .  S
C1186      C1187   1.416       .  A
C1186      C1198   1.444       .  S
C1187      C1188   1.405   1_655  A
C1188      H1203   1.084       .  S
C1189      C1190   1.401   1_655  A
C1189      C1194   1.408       .  A
C1190      C1191   1.400       .  A
C1190      H1205   1.085       .  S
C1191      C1192   1.416       .  A
C1191      C1195   1.444       .  S
C1192      C1193   1.406   1_455  A
C1193      C1194   1.399       .  A
C1193      H1206   1.085       .  S
C1194      C1196   1.444       .  S
C1195      N1199   1.157       .  T
C1196      N1200   1.157       .  T
C1197      N1202   1.157       .  T
C1198      N1201   1.157       .  T
C1207      C1208   1.409   1_545  A
C1207      C1212   1.399       .  A
C1207      C1221   1.444       .  S
C1208      C1213   1.479       .  S
C1208      C1209   1.400       .  A
C1209      C1210   1.400       .  A
C1209      H1228   1.085       .  S
C1210      C1211   1.416       .  A
C1210      C1222   1.445       .  S
C1211      C1212   1.405   1_565  A
C1212      H1227   1.085       .  S
C1213      C1214   1.402       .  A
C1213      C1218   1.409   1_565  A
C1214      C1215   1.401       .  A
C1214      H1229   1.085       .  S
C1215      C1216   1.413       .  A
C1215      C1219   1.444       .  S
C1216      C1217   1.403   1_565  A
C1217      C1218   1.397       .  A
C1217      H1230   1.085       .  S
C1218      C1220   1.444       .  S
C1219      N1223   1.157       .  T
C1220      N1224   1.157       .  T
C1221      N1226   1.157       .  T
C1222      N1225   1.157       .  T
C1231      C1232   1.408       .  A
C1231      C1236   1.398       .  A
C1231      C1245   1.443       .  S
C1232      C1237   1.480       .  S
C1232      C1233   1.403   1_565  A
C1233      C1234   1.400       .  A
C1233      H1252   1.085       .  S
C1234      C1235   1.413   1_545  A
C1234      C1246   1.445       .  S
C1235      C1236   1.405       .  A
C1236      H1251   1.085       .  S
C1237      C1238   1.400   1_565  A
C1237      C1242   1.409       .  A
C1238      C1239   1.399       .  A
C1238      H1253   1.085       .  S
C1239      C1240   1.415   1_545  A
C1239      C1243   1.443       .  S
C1240      C1241   1.406       .  A
C1241      C1242   1.402       .  A
C1241      H1254   1.085       .  S
C1242      C1244   1.444       .  S
C1243      N1247   1.157       .  T
C1244      N1248   1.157       .  T
C1245      N1250   1.157       .  T
C1246      N1249   1.157       .  T
C1255      C1256   1.408   1_565  A
C1255      C1260   1.398       .  A
C1255      C1269   1.445       .  S
C1256      C1261   1.479       .  S
C1256      C1257   1.401       .  A
C1257      C1258   1.400       .  A
C1257      H1276   1.085       .  S
C1258      C1259   1.416       .  A
C1258      C1270   1.443       .  S
C1259      C1260   1.407   1_545  A
C1260      H1275   1.084       .  S
C1261      C1262   1.399       .  A
C1261      C1266   1.409   1_545  A
C1262      C1263   1.398       .  A
C1262      H1277   1.085       .  S
C1263      C1264   1.419       .  A
C1263      C1267   1.444       .  S
C1264      C1265   1.408   1_545  A
C1265      C1266   1.398       .  A
C1265      H1278   1.084       .  S
C1266      C1268   1.445       .  S
C1267      N1271   1.157       .  T
C1268      N1272   1.157       .  T
C1269      N1274   1.157       .  T
C1270      N1273   1.157       .  T
C1279      C1280   1.408       .  A
C1279      C1284   1.398       .  A
C1279      C1293   1.444       .  S
C1280      C1285   1.478       .  S
C1280      C1281   1.400       .  A
C1281      C1282   1.398       .  A
C1281      H1300   1.085   1_545  S
C1282      C1283   1.416       .  A
C1282      C1294   1.444   1_545  S
C1283      C1284   1.406       .  A
C1284      H1299   1.084       .  S
C1285      C1286   1.399   1_545  A
C1285      C1290   1.407       .  A
C1286      C1287   1.398       .  A
C1286      H1301   1.085       .  S
C1287      C1288   1.420   1_565  A
C1287      C1291   1.444       .  S
C1288      C1289   1.409       .  A
C1289      C1290   1.399       .  A
C1289      H1302   1.084       .  S
C1290      C1292   1.444       .  S
C1291      N1295   1.157       .  T
C1292      N1296   1.157       .  T
C1293      N1298   1.157       .  T
C1294      N1297   1.157       .  T
C1303      C1304   1.407   1_556  A
C1303      C1308   1.399       .  A
C1303      C1317   1.445       .  S
C1304      C1309   1.473       .  S
C1304      C1305   1.400       .  A
C1305      C1306   1.398       .  A
C1305      H1324   1.085       .  S
C1306      C1307   1.412       .  A
C1306      C1318   1.444       .  S
C1307      C1308   1.407   1_554  A
C1308      H1323   1.085       .  S
C1309      C1310   1.400       .  A
C1309      C1314   1.407   1_554  A
C1310      C1311   1.398       .  A
C1310      H1325   1.085       .  S
C1311      C1312   1.413       .  A
C1311      C1315   1.444       .  S
C1312      C1313   1.404   1_554  A
C1313      C1314   1.397       .  A
C1313      H1326   1.085       .  S
C1314      C1316   1.444       .  S
C1315      N1319   1.157       .  T
C1316      N1320   1.157       .  T
C1317      N1322   1.157       .  T
C1318      N1321   1.157       .  T
C1327      C1328   1.410       .  A
C1327      C1332   1.397       .  A
C1327      C1341   1.444   1_554  S
C1328      C1333   1.484       .  S
C1328      C1329   1.403       .  A
C1329      C1330   1.404       .  A
C1329      H1348   1.085       .  S
C1330      C1331   1.414       .  A
C1330      C1342   1.444       .  S
C1331      C1332   1.404       .  A
C1332      H1347   1.085   1_554  S
C1333      C1334   1.402       .  A
C1333      C1338   1.408       .  A
C1334      C1335   1.405       .  A
C1334      H1349   1.085       .  S
C1335      C1336   1.418       .  A
C1335      C1339   1.444       .  S
C1336      C1337   1.406       .  A
C1337      C1338   1.398       .  A
C1337      H1350   1.085   1_554  S
C1338      C1340   1.444   1_554  S
C1339      N1343   1.157       .  T
C1340      N1344   1.157       .  T
C1341      N1346   1.157       .  T
C1342      N1345   1.157       .  T
C1351      C1352   1.410       .  A
C1351      C1356   1.402       .  A
C1351      C1365   1.443       .  S
C1352      C1357   1.487       .  S
C1352      C1353   1.403   1_554  A
C1353      C1354   1.402       .  A
C1353      H1372   1.085       .  S
C1354      C1355   1.415       .  A
C1354      C1366   1.443       .  S
C1355      C1356   1.407   1_556  A
C1356      H1371   1.084       .  S
C1357      C1358   1.401   1_554  A
C1357      C1362   1.410       .  A
C1358      C1359   1.400       .  A
C1358      H1373   1.085       .  S
C1359      C1360   1.418   1_556  A
C1359      C1363   1.444       .  S
C1360      C1361   1.409       .  A
C1361      C1362   1.403       .  A
C1361      H1374   1.084       .  S
C1362      C1364   1.444       .  S
C1363      N1367   1.157       .  T
C1364      N1368   1.157       .  T
C1365      N1370   1.157       .  T
C1366      N1369   1.157       .  T
C1375      C1376   1.408       .  A
C1375      C1380   1.398       .  A
C1375      C1389   1.444   1_554  S
C1376      C1381   1.481       .  S
C1376      C1377   1.399       .  A
C1377      C1378   1.402       .  A
C1377      H1396   1.085       .  S
C1378      C1379   1.419       .  A
C1378      C1390   1.443       .  S
C1379      C1380   1.407       .  A
C1380      H1395   1.084   1_554  S
C1381      C1382   1.402       .  A
C1381      C1386   1.406   1_554  A
C1382      C1383   1.405       .  A
C1382      H1397   1.085       .  S
C1383      C1384   1.419       .  A
C1383      C1387   1.444       .  S
C1384      C1385   1.408   1_554  A
C1385      C1386   1.393       .  A
C1385      H1398   1.084       .  S
C1386      C1388   1.445       .  S
C1387      N1391   1.158       .  T
C1388      N1392   1.157       .  T
C1389      N1394   1.157       .  T
C1390      N1393   1.157       .  T
