geometry optimzed in LAMMPS
_audit_creation_date              2020-11-30 
_audit_creation_method            'lammps2cif' 
_symmetry_space_group_name_H-M    'P1' 
_symmetry_Int_Tables_number       1 
_symmetry_cell_setting            triclinic 
loop_ 
_symmetry_equiv_pos_as_xyz 
  x,y,z 
_cell_length_a                    38.62101721 
_cell_length_b                    38.34082525699439 
_cell_length_c                    38.681175830114825 
_cell_angle_alpha                 90.14453547127697 
_cell_angle_beta                  90.16902550731061 
_cell_angle_gamma                 90.00725056955713 
loop_ 
_atom_site_label 
_atom_site_type_symbol 
_atom_site_fract_x 
_atom_site_fract_y 
_atom_site_fract_z 
_atom_site_charge 
C1          C  0.96852120  0.01591284  0.99660736     0.01900
C2          C  0.99098736  0.02566411  0.96896541     0.01900
C3          C  0.02067217  0.00464426  0.96117504     0.01900
C4          C  0.02824703  0.97436740  0.98176922     0.01900
C5          C  0.00543113  0.96440369  0.00937360     0.01900
C6          C  0.97713899  0.98700245  0.01837629     0.01900
O7          O  0.02664116  0.17799689  0.85077094    -0.80500
O8          O  0.97523514  0.32522910  0.85989184    -0.80500
O9          O  0.94384287  0.25512782  0.82140752    -0.80500
O10         O  0.05822364  0.24994417  0.82341548    -0.80500
O11         O  0.92108848  0.28154694  0.86495406    -0.80600
O12         O  0.08019818  0.21972521  0.86472371    -0.80500
O13         O  0.00819358  0.29966142  0.82055365    -0.80500
O14         O  0.99375263  0.20719977  0.81404488    -0.80500
C15         C  0.01485550  0.18340108  0.82041867     1.09200
C16         C  0.98763194  0.32325923  0.82959430     1.09100
C17         C  0.91814133  0.27086411  0.83377428     1.09200
C18         C  0.08376158  0.23316095  0.83491681     1.09100
O19         O  0.04704192  0.24072209  0.92964731    -0.80500
O20         O  0.95310320  0.25319839  0.92840018    -0.80600
O21         O  0.97028616  0.17036698  0.87584067    -0.80500
O22         O  0.03178383  0.32833309  0.88608866    -0.80500
O23         O  0.00233661  0.30437033  0.92708320    -0.80600
O24         O  0.99698110  0.19184216  0.91977830    -0.80500
O25         O  0.07489316  0.27497950  0.89343769    -0.80500
O26         O  0.92613464  0.22312372  0.88783501    -0.80600
Co27       Co  0.03435450  0.21094382  0.89087653     1.51500
Co28       Co  0.96627076  0.28758795  0.89434787     1.51700
Co29       Co  0.96209269  0.21726385  0.85084863     1.51600
Co30       Co  0.03972948  0.28485880  0.85617883     1.51500
O31         O  0.00059410  0.25030521  0.87298832    -1.42400
C32         C  0.07122771  0.26159403  0.92324563     1.09100
C33         C  0.92861909  0.23398825  0.91880795     1.09200
C34         C  0.98211567  0.16605578  0.90623485     1.09100
C35         C  0.01947096  0.33021223  0.91643425     1.09100
O36         O  0.84941175  0.02783334  0.18180354    -0.80500
O37         O  0.86369026  0.96815304  0.31936186    -0.80500
O38         O  0.83681753  0.93664896  0.24795053    -0.80500
O39         O  0.82897602  0.05526335  0.24690554    -0.80500
O40         O  0.88102516  0.91695845  0.27550899    -0.80600
O41         O  0.86989095  0.07992538  0.21773654    -0.80500
O42         O  0.82272033  0.00339681  0.29909230    -0.80500
O43         O  0.82152920  0.98216312  0.20105185    -0.80500
C44         C  0.82269092  0.00861717  0.18258659     1.09200
C45         C  0.83339517  0.98112121  0.32090964     1.09100
C46         C  0.85016369  0.91229848  0.26471105     1.09200
C47         C  0.84059489  0.08239009  0.23202786     1.09100
O48         O  0.93221159  0.04235190  0.23687830    -0.80500
O49         O  0.94133631  0.96022563  0.25572983    -0.80600
O50         O  0.89156062  0.97631290  0.16787276    -0.80500
O51         O  0.88456454  0.02851249  0.32988318    -0.80500
O52         O  0.92908670  0.00480008  0.30701198    -0.80600
O53         O  0.91774481  0.02667483  0.17372841    -0.80500
O54         O  0.89806250  0.06912817  0.27423983    -0.80500
O55         O  0.90749588  0.93144735  0.21959356    -0.80600
Co56       Co  0.88950097  0.03182639  0.21430927     1.51500
Co57       Co  0.90272709  0.96522040  0.28641998     1.51700
Co58       Co  0.86478873  0.95970243  0.21255236     1.51600
Co59       Co  0.85898666  0.03553033  0.28400346     1.51500
O60         O  0.87804820  0.99644303  0.25031598    -1.42400
C61         C  0.92740555  0.06501920  0.25958226     1.09100
C62         C  0.93727847  0.93957055  0.23115015     1.09200
C63         C  0.91213151  0.00002256  0.15587817     1.09100
C64         C  0.91579255  0.01923731  0.33301250     1.09100
C65         C  0.03037100  0.02059385  0.51081114     0.01900
C66         C  0.00980025  0.03079258  0.48155698     0.01900
C67         C  0.97987130  0.01059911  0.47160960     0.01900
C68         C  0.96908460  0.98153110  0.49244421     0.01900
C69         C  0.99010232  0.97103754  0.52115914     0.01900
C70         C  0.01940561  0.99164880  0.53143750     0.01900
O71         O  0.02984895  0.82458321  0.64477886    -0.80500
O72         O  0.97300938  0.67672297  0.63800311    -0.80500
O73         O  0.94737293  0.74805653  0.67817304    -0.80500
O74         O  0.05733990  0.74974620  0.67690429    -0.80500
O75         O  0.92273363  0.72275838  0.63446594    -0.80600
O76         O  0.08064454  0.77912686  0.63541576    -0.80500
O77         O  0.00509859  0.70054285  0.67873220    -0.80500
O78         O  0.00055112  0.79501296  0.68342245    -0.80500
C79         C  0.01890773  0.82058026  0.67552550     1.09200
C80         C  0.98558704  0.67637159  0.66832380     1.09100
C81         C  0.92096782  0.73294006  0.66578301     1.09200
C82         C  0.08319443  0.76624542  0.66562516     1.09100
O83         O  0.04835591  0.75662471  0.57009398    -0.80500
O84         O  0.95139832  0.75004968  0.57023840    -0.80600
O85         O  0.97421026  0.83073869  0.61975789    -0.80500
O86         O  0.02997021  0.67206560  0.61332219    -0.80500
O87         O  0.00063891  0.69460533  0.57082433    -0.80600
O88         O  0.00001753  0.80731718  0.57622958    -0.80500
O89         O  0.07516898  0.72332525  0.60801522    -0.80500
O90         O  0.93000182  0.78085394  0.61315160    -0.80600
Co91       Co  0.03648498  0.78867108  0.60694370     1.51500
Co92       Co  0.96566067  0.71468840  0.60389611     1.51700
Co93       Co  0.96654732  0.78533329  0.64806813     1.51600
Co94       Co  0.03857743  0.71485757  0.64396646     1.51500
O95         O  0.00179642  0.75059157  0.62528105    -1.42400
C96         C  0.07208671  0.73572870  0.57771453     1.09100
C97         C  0.92831241  0.76994348  0.58237895     1.09200
C98         C  0.98417161  0.83316434  0.58842308     1.09100
C99         C  0.01854919  0.66934812  0.58253446     1.09100
O100        O  0.17074210  0.85300271  0.01974321    -0.80500
O101        O  0.32262543  0.85848571  0.97566577    -0.80500
O102        O  0.25249106  0.81852050  0.94193327    -0.80500
O103        O  0.24337811  0.81914961  0.05300892    -0.80500
O104        O  0.28066843  0.86278742  0.92161319    -0.80600
O105        O  0.21194914  0.86061839  0.07427707    -0.80500
O106        O  0.29558315  0.81773715  0.00537698    -0.80500
O107        O  0.20056289  0.81357800  0.99092777    -0.80500
C108        C  0.17468749  0.82212034  0.00857803     1.09200
C109        C  0.32026777  0.82741338  0.98670486     1.09100
C110        C  0.27047354  0.83145760  0.91781088     1.09200
C111        C  0.22509904  0.83030255  0.07765635     1.09100
O112        O  0.23710216  0.92662008  0.04470789    -0.80500
O113        O  0.25068023  0.92689027  0.94921942    -0.80600
O114        O  0.16933870  0.87805069  0.96362376    -0.80500
O115        O  0.32204452  0.88425858  0.03195467    -0.80500
O116        O  0.29981098  0.92620503  0.00170265    -0.80600
O117        O  0.19124713  0.92109162  0.99225611    -0.80500
O118        O  0.26760164  0.88809418  0.07381548    -0.80500
O119        O  0.22253630  0.88488322  0.92255443    -0.80600
Co120      Co  0.20621535  0.88997896  0.02977280     1.51500
Co121      Co  0.28470842  0.89294628  0.96536818     1.51700
Co122      Co  0.21440009  0.84933596  0.95856312     1.51600
Co123      Co  0.27908924  0.85265386  0.03746966     1.51500
O124        O  0.24624146  0.87110558  0.99778446    -1.42400
C125        C  0.25558659  0.91860852  0.07007665     1.09100
C126        C  0.23323569  0.91603436  0.92380309     1.09200
C127        C  0.16611395  0.90889840  0.97548376     1.09100
C128        C  0.32477687  0.91500159  0.01966782     1.09100
O129        O  0.00638186  0.80290259  0.17717943    -0.80500
O130        O  0.99773332  0.70800041  0.18731286    -0.80500
O131        O  0.92230794  0.77951818  0.13493914    -0.80500
O132        O  0.07706532  0.71727800  0.13674518    -0.80500
O133        O  0.94745606  0.75655479  0.17940136    -0.80600
O134        O  0.05606973  0.75024103  0.17727380    -0.80500
O135        O  0.02559553  0.67554100  0.14975709    -0.80500
O136        O  0.97382002  0.82380539  0.13539002    -0.80500
C137        C  0.98720824  0.82665831  0.16514228     1.09200
C138        C  0.01591840  0.68198520  0.18053215     1.09100
C139        C  0.92119541  0.77136059  0.16677317     1.09200
C140        C  0.08024704  0.73086909  0.16655287     1.09100
O141        O  0.07405057  0.77162141  0.10708534    -0.80500
O142        O  0.92637769  0.72012621  0.11651111    -0.80600
O143        O  0.00024229  0.80118098  0.06965647    -0.80500
O144        O  0.99455007  0.68926474  0.08113877    -0.80500
O145        O  0.96947008  0.66864888  0.12639168    -0.80600
O146        O  0.03091828  0.82535254  0.11025404    -0.80500
O147        O  0.04510229  0.73758080  0.07113438    -0.80500
O148        O  0.95039598  0.74717321  0.07254812    -0.80600
Co149      Co  0.03847922  0.78411197  0.14289597     1.51500
Co150      Co  0.96366515  0.71641334  0.15165388     1.51700
Co151      Co  0.96511701  0.78422031  0.10378365     1.51600
Co152      Co  0.03247971  0.70827303  0.10973782     1.51500
O153        O  0.99998842  0.74861586  0.12683030    -1.42400
C154        C  0.06989772  0.75776446  0.07747078     1.09100
C155        C  0.92611174  0.72919645  0.08502612     1.09200
C156        C  0.01788755  0.82718894  0.08009224     1.09100
C157        C  0.97867732  0.66429636  0.09500299     1.09100
C158        C  0.23001836  0.71655626  0.25645975     0.01900
C159        C  0.21872544  0.73798639  0.22823389     0.01900
C160        C  0.23946574  0.76677391  0.21693416     0.01900
C161        C  0.26838318  0.77759991  0.23781940     0.01900
C162        C  0.27936133  0.75664259  0.26680998     0.01900
C163        C  0.25936978  0.72672922  0.27695450     0.01900
O164        O  0.20407171  0.67878957  0.49224765    -0.80500
O165        O  0.30011888  0.68083093  0.49685311    -0.80500
O166        O  0.22478189  0.63705847  0.57629602    -0.80500
O167        O  0.27871134  0.62802315  0.41834429    -0.80500
O168        O  0.25169545  0.68004752  0.55166490    -0.80600
O169        O  0.25197558  0.67228143  0.44030371    -0.80500
O170        O  0.32429932  0.63800979  0.46759620    -0.80500
O171        O  0.17878387  0.64028022  0.52612182    -0.80500
C172        C  0.18050347  0.67061574  0.51299652     1.09200
C173        C  0.32402549  0.66951464  0.47763037     1.09100
C174        C  0.23534509  0.66843640  0.57765108     1.09200
C175        C  0.26765298  0.65919907  0.41481964     1.09100
O176        O  0.22337578  0.60262142  0.42668459    -0.80500
O177        O  0.28226822  0.61399575  0.57180459    -0.80600
O178        O  0.19797442  0.57077370  0.50135423    -0.80500
O179        O  0.30819382  0.57250871  0.50181899    -0.80500
O180        O  0.33143815  0.61797007  0.52582158    -0.80600
O181        O  0.17361103  0.61178996  0.47149533    -0.80500
O182        O  0.25491641  0.56450794  0.45526479    -0.80500
O183        O  0.25123003  0.57122797  0.54968761    -0.80600
Co184      Co  0.21663399  0.64127901  0.46096209     1.51500
Co185      Co  0.28775588  0.64758764  0.53304494     1.51700
Co186      Co  0.21651024  0.60509988  0.53485488     1.51600
Co187      Co  0.28814254  0.60137630  0.46410525     1.51500
O188        O  0.25229019  0.62401155  0.49841029    -1.42400
C189        C  0.23487940  0.57185731  0.43083768     1.09100
C190        C  0.27137805  0.58279123  0.57273286     1.09200
C191        C  0.17185389  0.58158381  0.48488379     1.09100
C192        C  0.33395378  0.58607643  0.51692258     1.09100
C193        C  0.23291619  0.77795203  0.75901122     0.01900
C194        C  0.22231280  0.75771309  0.72954742     0.01900
C195        C  0.24369787  0.72962537  0.71756817     0.01900
C196        C  0.27354032  0.71934019  0.73731125     0.01900
C197        C  0.28406389  0.73954623  0.76673883     0.01900
C198        C  0.26261795  0.76751720  0.77887509     0.01900
O199        O  0.42553521  0.77377142  0.88739530    -0.80500
O200        O  0.57529542  0.72458737  0.89328358    -0.80500
O201        O  0.50312146  0.69265789  0.92510834    -0.80500
O202        O  0.49614984  0.80591132  0.92436880    -0.80500
O203        O  0.53284528  0.67046008  0.88335378    -0.80600
O204        O  0.46892112  0.82768449  0.88078743    -0.80500
O205        O  0.54634300  0.75656692  0.93087680    -0.80500
O206        O  0.45166555  0.74251937  0.92767701    -0.80500
C207        C  0.42735168  0.76210324  0.91803902     1.09200
C208        C  0.57131087  0.73710501  0.92350639     1.09100
C209        C  0.52027559  0.66715603  0.91356234     1.09200
C210        C  0.47955076  0.83122635  0.91187543     1.09100
O211        O  0.49661934  0.79328903  0.81788819    -0.80500
O212        O  0.50930958  0.70273770  0.81843404    -1.04600
O213        O  0.42343019  0.71608445  0.86268319    -0.80500
O214        O  0.57954476  0.78120662  0.86721731    -0.80500
O215        O  0.55825640  0.75238046  0.82443777    -0.80600
O216        O  0.44703545  0.74456945  0.82095889    -0.80500
O217        O  0.52576707  0.82330493  0.85679618    -0.80500
O218        O  0.47738167  0.67410839  0.85603635    -0.80600
Co219      Co  0.46298329  0.78176485  0.85250139     1.51500
Co220      Co  0.54042836  0.71570159  0.85539565     1.51700
Co221      Co  0.46718638  0.70985427  0.89258831     1.51600
Co222      Co  0.53376793  0.78822656  0.89422759     1.51500
O223        O  0.50101352  0.74885301  0.87409824    -1.42400
C224        C  0.51461103  0.81898984  0.82615458     1.09100
C225        C  0.48977727  0.67787416  0.82584865     1.09200
C226        C  0.42151088  0.72760092  0.83195810     1.09100
C227        C  0.58348074  0.76890066  0.83687021     1.09100
C228        C  0.75696839  0.23071178  0.77695827     0.01900
C229        C  0.77886018  0.26049637  0.76663636     0.01900
C230        C  0.76787201  0.28249157  0.73825753     0.01900
C231        C  0.74043551  0.27134219  0.71602475     0.01900
C232        C  0.72004706  0.24142329  0.72427819     0.01900
C233        C  0.73059349  0.21802482  0.75209136     0.01900
O234        O  0.88359066  0.42705461  0.77588663    -0.80500
O235        O  0.90463923  0.57392811  0.72579610    -0.80500
O236        O  0.92694087  0.50033549  0.69401858    -0.80500
O237        O  0.92491598  0.49336904  0.80776192    -0.80500
O238        O  0.88825031  0.53370924  0.67161558    -0.80600
O239        O  0.87826844  0.47133327  0.82896263    -0.80500
O240        O  0.93865173  0.54132480  0.75827173    -0.80500
O241        O  0.92528447  0.45071882  0.74449321    -0.80500
C242        C  0.91459818  0.42771670  0.76495687     1.09200
C243        C  0.93452443  0.56583957  0.73749151     1.09100
C244        C  0.91685980  0.51772300  0.66832706     1.09200
C245        C  0.91012176  0.47876234  0.83294005     1.09100
O246        O  0.81823295  0.50358835  0.79666337    -0.80500
O247        O  0.82169271  0.51838711  0.70277814    -0.80600
O248        O  0.85950175  0.42574446  0.71838519    -0.80500
O249        O  0.87819592  0.58347799  0.78072510    -0.80500
O250        O  0.83326262  0.56487227  0.75361109    -0.80600
O251        O  0.81780696  0.45021781  0.74674038    -0.80500
O252        O  0.86139724  0.53164264  0.82160674    -0.80500
O253        O  0.85573987  0.48053268  0.67615330    -0.80600
Co254      Co  0.85054699  0.46679824  0.78343349     1.51500
Co255      Co  0.86206261  0.54438352  0.71678250     1.51700
Co256      Co  0.89162650  0.46768587  0.71170922     1.51600
Co257      Co  0.89977650  0.53423081  0.78837128     1.51500
O258        O  0.87563862  0.50303006  0.75002524    -1.42400
C259        C  0.82996849  0.52232740  0.82088216     1.09100
C260        C  0.82714533  0.49681695  0.67903336     1.09200
C261        C  0.82862360  0.42427082  0.72951862     1.09100
C262        C  0.84750096  0.58928797  0.76998053     1.09100
O263        O  0.00517056  0.19777599  0.31995690    -0.80500
O264        O  0.98780515  0.29334865  0.31949014    -0.80500
O265        O  0.92307493  0.21087272  0.37041147    -0.80500
O266        O  0.07465685  0.28235139  0.36096296    -0.80500
O267        O  0.94314652  0.23954894  0.32704742    -0.80600
O268        O  0.05215842  0.25082724  0.32019271    -0.80500
O269        O  0.01938366  0.32295615  0.35692181    -0.80500
O270        O  0.97782807  0.16925376  0.36094155    -0.80500
C271        C  0.98783841  0.17199851  0.32973353     1.09200
C272        C  0.00659664  0.31891365  0.32693373     1.09100
C273        C  0.91869544  0.22223680  0.33983639     1.09200
C274        C  0.07656017  0.27015577  0.33039323     1.09100
O275        O  0.07702060  0.22557232  0.38703766    -0.80500
O276        O  0.92464120  0.26821983  0.39497210    -0.80600
O277        O  0.00889371  0.19439849  0.42639128    -0.80500
O278        O  0.99650555  0.30178311  0.42560860    -0.80500
O279        O  0.96455589  0.32375942  0.38535435    -0.80600
O280        O  0.03547035  0.16984034  0.38417080    -0.80500
O281        O  0.04927867  0.25530927  0.42703701    -0.80500
O282        O  0.95603712  0.23966155  0.43297995    -0.80600
Co283      Co  0.03886790  0.21406931  0.35347821     1.51500
Co284      Co  0.95849823  0.27824348  0.35694092     1.51700
Co285      Co  0.96933224  0.20690271  0.39697382     1.51600
Co286      Co  0.03201906  0.28704715  0.39237354     1.51500
O287        O  0.99969778  0.24662284  0.37457157    -1.42400
C288        C  0.07466947  0.23731166  0.41764788     1.09100
C289        C  0.93013603  0.25788620  0.42565612     1.09200
C290        C  0.02475601  0.16821576  0.41525507     1.09100
C291        C  0.97852206  0.32698664  0.41507501     1.09100
C292        C  0.22662682  0.28267818  0.23950421     0.01900
C293        C  0.21516767  0.26216177  0.26830940     0.01900
C294        C  0.23579373  0.23307534  0.27991315     0.01900
C295        C  0.26374125  0.22076003  0.25831818     0.01900
C296        C  0.27444990  0.24115341  0.22887252     0.01900
C297        C  0.25491128  0.27114788  0.21872440     0.01900
O298        O  0.20189273  0.32151548  0.00985412    -0.80500
O299        O  0.29784347  0.31789519  0.00217999    -0.80500
O300        O  0.22116317  0.36178105  0.92292453    -0.80500
O301        O  0.27826485  0.37445716  0.08073795    -0.80500
O302        O  0.24868607  0.31891698  0.94714232    -0.80600
O303        O  0.25166187  0.33014331  0.05900628    -0.80500
O304        O  0.32173334  0.36119705  0.03095405    -0.80500
O305        O  0.17588527  0.35827063  0.97441680    -0.80500
C306        C  0.17810629  0.32849919  0.98877143     1.09200
C307        C  0.32194351  0.32971871  0.02102862     1.09100
C308        C  0.23227655  0.33064742  0.92107258     1.09200
C309        C  0.26744101  0.34328712  0.08437181     1.09100
O310        O  0.22340156  0.40101149  0.07162879    -0.80500
O311        O  0.27902568  0.38479384  0.92782923    -0.80600
O312        O  0.19369082  0.42903893  0.99700351    -0.80500
O313        O  0.30690107  0.42609449  0.99487067    -0.80500
O314        O  0.32977885  0.37992992  0.97248208    -0.80600
O315        O  0.17132965  0.38844883  0.02859625    -0.80500
O316        O  0.25600532  0.43728476  0.04190795    -0.80500
O317        O  0.24709872  0.42781462  0.94830139    -0.80600
Co318      Co  0.21540764  0.36036373  0.03913751     1.51500
Co319      Co  0.28504145  0.35126243  0.96609381     1.51700
Co320      Co  0.21297920  0.39392797  0.96430435     1.51600
Co321      Co  0.28717601  0.39902300  0.03381308     1.51500
O322        O  0.25002756  0.37609947  0.00055685    -1.42400
C323        C  0.23512659  0.43153105  0.06581256     1.09100
C324        C  0.26747343  0.41565481  0.92580335     1.09200
C325        C  0.16821609  0.41819269  0.01441557     1.09100
C326        C  0.33275710  0.41192078  0.98072592     1.09100
C327        C  0.24426209  0.26621972  0.78168215     0.01900
C328        C  0.22189021  0.23923285  0.76865852     0.01900
C329        C  0.23146217  0.21994517  0.73804640     0.01900
C330        C  0.26165550  0.22986684  0.71872231     0.01900
C331        C  0.28375855  0.25679676  0.73190395     0.01900
C332        C  0.27393971  0.27643287  0.76188424     0.01900
O333        O  0.56827022  0.28372393  0.59694288    -0.80500
O334        O  0.42668669  0.22543348  0.60903101    -0.80500
O335        O  0.49389975  0.19705658  0.56911952    -0.80500
O336        O  0.49679840  0.31402982  0.57590712    -0.80500
O337        O  0.47179913  0.17335830  0.61448273    -0.80600
O338        O  0.52697879  0.33463582  0.61799526    -0.80500
O339        O  0.44969296  0.26168529  0.57079431    -0.80500
O340        O  0.53879660  0.25113530  0.55976095    -0.80500
C341        C  0.56153991  0.27348567  0.56608825     1.09200
C342        C  0.42778986  0.23901446  0.57898160     1.09100
C343        C  0.47994523  0.17072169  0.58287739     1.09200
C344        C  0.51305403  0.33941360  0.58868410     1.09100
O345        O  0.51043823  0.29573421  0.68052401    -0.80500
O346        O  0.50146469  0.20429384  0.67577288    -0.80600
O347        O  0.58065153  0.22720245  0.61884849    -0.80500
O348        O  0.42154570  0.28078828  0.63732680    -0.80500
O349        O  0.44779328  0.25218464  0.67747540    -0.80600
O350        O  0.55980847  0.24856654  0.66562436    -0.80500
O351        O  0.47353278  0.32462055  0.64754127    -0.80500
O352        O  0.53129871  0.18188382  0.63247999    -0.80600
Co353      Co  0.53834216  0.28723034  0.63989328     1.51500
Co354      Co  0.46511213  0.21745775  0.64355069     1.51700
Co355      Co  0.53279978  0.21780540  0.59613892     1.51600
Co356      Co  0.46373681  0.29202428  0.60787517     1.51500
O357        O  0.49976529  0.25352428  0.62165460    -1.42400
C358        C  0.48901526  0.31992775  0.67630822     1.09100
C359        C  0.52137826  0.18124756  0.66365966     1.09200
C360        C  0.58527411  0.23538985  0.65043231     1.09100
C361        C  0.42098296  0.26802542  0.66749861     1.09100
O362        O  0.31309644  0.00241402  0.20122514    -0.80500
O363        O  0.31151128  0.99270471  0.29449961    -0.80500
O364        O  0.36128912  0.92152162  0.21683025    -0.80500
O365        O  0.35509103  0.07700666  0.28153991    -0.80500
O366        O  0.31749085  0.94251074  0.24483431    -0.80600
O367        O  0.31326381  0.05442698  0.25127185    -0.80500
O368        O  0.34973728  0.02360476  0.32374999    -0.80500
O369        O  0.35474062  0.97438672  0.17397442    -0.80500
C370        C  0.32343246  0.98420366  0.17632385     1.09200
C371        C  0.31917163  0.01206847  0.31938190     1.09100
C372        C  0.33032715  0.91782116  0.22732485     1.09200
C373        C  0.32452187  0.07955785  0.26951374     1.09100
O374        O  0.37946402  0.07505880  0.22448545    -0.80500
O375        O  0.38400051  0.92514138  0.27474644    -0.80600
O376        O  0.42052167  0.00463141  0.19716579    -0.80500
O377        O  0.41889789  0.99811646  0.30409326    -0.80500
O378        O  0.37718150  0.96854255  0.32690531    -0.80600
O379        O  0.37778419  0.03163559  0.17264226    -0.80500
O380        O  0.42062621  0.05059219  0.25534661    -0.80500
O381        O  0.42431854  0.95256465  0.24569682    -0.80600
Co382      Co  0.34633021  0.03721088  0.21554158     1.51500
Co383      Co  0.34790484  0.96079624  0.28225618     1.51700
Co384      Co  0.38968389  0.96653176  0.21180793     1.51600
Co385      Co  0.38590494  0.03398157  0.28780725     1.51500
O386        O  0.36747077  0.99968076  0.24933004    -1.42400
C387        C  0.40974938  0.07527976  0.23682273     1.09100
C388        C  0.41459457  0.92690997  0.26338488     1.09200
C389        C  0.40903997  0.02092682  0.17133014     1.09100
C390        C  0.40792760  0.98069421  0.32939039     1.09100
C391        C  0.48984065  0.03262911  0.51548918     0.01900
C392        C  0.46908411  0.02278784  0.48599387     0.01900
C393        C  0.47995672  0.99423110  0.46431145     0.01900
C394        C  0.50964218  0.97395730  0.47408170     0.01900
C395        C  0.53017144  0.98389642  0.50362242     0.01900
C396        C  0.51904323  0.01182879  0.52576639     0.01900
O397        O  0.45634587  0.76397964  0.42690958    -0.80500
O398        O  0.54628106  0.74597709  0.42543481    -0.80500
O399        O  0.47099267  0.67290339  0.37558370    -0.80500
O400        O  0.53217371  0.83341445  0.37295910    -0.80500
O401        O  0.49779347  0.69599075  0.41837533    -0.80600
O402        O  0.50634385  0.81179463  0.41680934    -0.80500
O403        O  0.57412261  0.77941541  0.38806840    -0.80500
O404        O  0.42957049  0.72744741  0.39109662    -0.80500
C405        C  0.43386838  0.74101402  0.42109412     1.09200
C406        C  0.57014369  0.76686294  0.41828245     1.09100
C407        C  0.48291874  0.66965875  0.40591944     1.09200
C408        C  0.52175272  0.83735001  0.40379340     1.09100
O409        O  0.47574651  0.82511638  0.34680984    -0.80500
O410        O  0.52699395  0.68041708  0.34944190    -0.80600
O411        O  0.44192579  0.75629123  0.32129777    -0.80500
O412        O  0.55846765  0.74807459  0.31975724    -0.80500
O413        O  0.58074253  0.72207195  0.36323023    -0.80600
O414        O  0.42114919  0.78431342  0.36449456    -0.80500
O415        O  0.51027554  0.79657251  0.31084270    -0.80500
O416        O  0.49206919  0.70715548  0.31241290    -0.80600
Co417      Co  0.46832859  0.79301711  0.38797586     1.51500
Co418      Co  0.53458486  0.71451691  0.38847003     1.51700
Co419      Co  0.46205214  0.71943475  0.35065891     1.51600
Co420      Co  0.54032117  0.78612074  0.34874076     1.51500
O421        O  0.50119179  0.75326630  0.36894178    -1.42400
C422        C  0.48813949  0.81954562  0.31658979     1.09100
C423        C  0.51381400  0.68377370  0.31933204     1.09200
C424        C  0.41642997  0.77168636  0.33456904     1.09100
C425        C  0.58432082  0.73331880  0.33271571     1.09100
O426        O  0.56120559  0.95664428  0.74619136    -0.80500
O427        O  0.56235667  0.04516410  0.75493997    -0.80500
O428        O  0.60991111  0.97326700  0.83261133    -0.80500
O429        O  0.61513511  0.02447130  0.67017000    -0.80500
O430        O  0.56686681  0.00133865  0.81023057    -0.80600
O431        O  0.57011183  0.99969096  0.69140303    -0.80500
O432        O  0.60152432  0.06940890  0.72066775    -0.80500
O433        O  0.59740843  0.92919252  0.78121470    -0.80500
C434        C  0.56741188  0.93343500  0.76794028     1.09200
C435        C  0.57060237  0.06660960  0.73213185     1.09100
C436        C  0.57952959  0.98519947  0.83579796     1.09200
C437        C  0.58427970  0.01383245  0.66567306     1.09100
O438        O  0.63824789  0.96743734  0.68097375    -0.80500
O439        O  0.63451182  0.03059166  0.82369863    -0.80600
O440        O  0.66745831  0.94241614  0.75317780    -0.80500
O441        O  0.67048303  0.05355051  0.75321556    -0.80500
O442        O  0.62682906  0.08002760  0.77547077    -0.80600
O443        O  0.62442555  0.91834186  0.72693246    -0.80500
O444        O  0.67641264  0.00047936  0.70815830    -0.80500
O445        O  0.67336007  0.99483954  0.80098914    -0.80600
Co446      Co  0.59897557  0.96391850  0.71481009     1.51500
Co447      Co  0.59823974  0.03581936  0.78775964     1.51700
Co448      Co  0.63661930  0.96294732  0.78838830     1.51600
Co449      Co  0.64014525  0.03405001  0.71667574     1.51500
O450        O  0.61829522  0.99920903  0.75208195    -1.42400
C451        C  0.66879008  0.97949200  0.68446150     1.09100
C452        C  0.66495838  0.01841364  0.82211408     1.09200
C453        C  0.65524699  0.91594971  0.73820500     1.09100
C454        C  0.65841933  0.08098241  0.76594451     1.09100
C455        C  0.47646936  0.00572572  0.03560813     0.01900
C456        C  0.46497837  0.97845731  0.01239654     0.01900
C457        C  0.48586541  0.96941251  0.98280058     0.01900
C458        C  0.51537706  0.99087158  0.97423822     0.01900
C459        C  0.52673603  0.01803010  0.99747264     0.01900
C460        C  0.50625876  0.02651104  0.02721224     0.01900
O461        O  0.45651714  0.23854272  0.06982479    -0.80500
O462        O  0.54829819  0.25127963  0.07558834    -0.80500
O463        O  0.47180534  0.32897633  0.12053171    -0.80500
O464        O  0.52347730  0.16629984  0.13087821    -0.80500
O465        O  0.50023233  0.30522467  0.07894779    -0.80600
O466        O  0.50350878  0.18959519  0.08501295    -0.80500
O467        O  0.56748374  0.21683620  0.11706241    -0.80500
O468        O  0.42912635  0.27648843  0.10338129    -0.80500
C469        C  0.43473698  0.26245466  0.07384356     1.09200
C470        C  0.56999517  0.22942280  0.08700230     1.09100
C471        C  0.48516135  0.33179489  0.09084185     1.09200
C472        C  0.51538573  0.16285193  0.09918319     1.09100
O473        O  0.46770106  0.17992164  0.15311247    -0.80500
O474        O  0.52635681  0.31974663  0.14949932    -0.80600
O475        O  0.43608078  0.24861032  0.17456288    -0.80500
O476        O  0.55682258  0.25108686  0.18276278    -0.80500
O477        O  0.57918842  0.27580672  0.13822242    -0.80600
O478        O  0.41641034  0.22110623  0.13037751    -0.80500
O479        O  0.50115724  0.20829006  0.19055731    -0.80500
O480        O  0.48763428  0.29617987  0.18506507    -0.80600
Co481      Co  0.46451543  0.21036032  0.11031835     1.51500
Co482      Co  0.53453671  0.28470471  0.11113553     1.51700
Co483      Co  0.45937947  0.28398788  0.14560364     1.51600
Co484      Co  0.53351208  0.21424614  0.15419717     1.51500
O485        O  0.49810661  0.24868992  0.13033011    -1.42400
C486        C  0.47879619  0.18579736  0.18384896     1.09100
C487        C  0.51176578  0.31735265  0.17909281     1.09200
C488        C  0.41098401  0.23321034  0.16034188     1.09100
C489        C  0.58281813  0.26562471  0.16908024     1.09100
O490        O  0.17428612  0.14704669  0.47830144    -0.80500
O491        O  0.32587414  0.14169894  0.52056149    -0.80500
O492        O  0.25641048  0.17826340  0.55487052    -0.80500
O493        O  0.24572353  0.18036839  0.44391877    -0.80500
O494        O  0.28507337  0.13493967  0.57576520    -0.80600
O495        O  0.21406599  0.13910709  0.42266869    -0.80500
O496        O  0.29798762  0.18205412  0.49098544    -0.80500
O497        O  0.20469001  0.18464257  0.50901769    -0.80500
C498        C  0.17933500  0.17755232  0.49021777     1.09200
C499        C  0.32295841  0.17268072  0.50950932     1.09100
C500        C  0.27388080  0.16603268  0.57948526     1.09200
C501        C  0.22695442  0.16951082  0.41947688     1.09100
O502        O  0.23935780  0.07271834  0.45108183    -0.80500
O503        O  0.25651435  0.07074409  0.54431854    -0.80600
O504        O  0.17229494  0.11956218  0.53370046    -0.80500
O505        O  0.32610532  0.11675966  0.46340579    -0.80500
O506        O  0.30364894  0.07462047  0.49244102    -0.80600
O507        O  0.19312963  0.07729843  0.50360799    -0.80500
O508        O  0.27009463  0.11140215  0.42243345    -0.80500
O509        O  0.22790961  0.11019119  0.57426379    -0.80600
Co510      Co  0.20884158  0.10943656  0.46698741     1.51500
Co511      Co  0.28915331  0.10616449  0.53027041     1.51700
Co512      Co  0.21834563  0.14751423  0.53932806     1.51600
Co513      Co  0.28186051  0.14702559  0.45882820     1.51500
O514        O  0.24962373  0.12766246  0.49879515    -1.42400
C515        C  0.25759054  0.08093870  0.42561574     1.09100
C516        C  0.23830490  0.07913737  0.56974091     1.09200
C517        C  0.16833146  0.08896557  0.52119229     1.09100
C518        C  0.32910649  0.08611312  0.47569014     1.09100
C519        C  0.77667845  0.77773385  0.26336073     0.01900
C520        C  0.78557822  0.75692916  0.23380820     0.01900
C521        C  0.76308163  0.72932446  0.22265689     0.01900
C522        C  0.73327972  0.72073900  0.24271870     0.01900
C523        C  0.72377821  0.74202272  0.27168975     0.01900
C524        C  0.74614638  0.76973691  0.28288878     0.01900
O525        O  0.60912352  0.57436412  0.27734625    -0.80500
O526        O  0.61594582  0.42573676  0.22547940    -0.80500
O527        O  0.57919595  0.49521783  0.19586127    -0.80500
O528        O  0.57706983  0.50201461  0.30716312    -0.80500
O529        O  0.62336817  0.46947265  0.17340884    -0.80600
O530        O  0.61886940  0.53166068  0.32996813    -0.80500
O531        O  0.57484036  0.45055926  0.25650593    -0.80500
O532        O  0.57146023  0.54511681  0.24566030    -0.80500
C533        C  0.57878460  0.57028731  0.26510089     1.09200
C534        C  0.58508160  0.42651203  0.23665287     1.09100
C535        C  0.59207830  0.47962481  0.17021987     1.09200
C536        C  0.58848299  0.51917540  0.33262688     1.09100
O537        O  0.68404762  0.50837076  0.29888669    -0.80500
O538        O  0.68630833  0.49706807  0.20747538    -0.80600
O539        O  0.63489947  0.57980571  0.22167693    -0.80500
O540        O  0.63895769  0.42212092  0.28342053    -0.80500
O541        O  0.68227658  0.44476078  0.25623192    -0.80600
O542        O  0.67783626  0.55737165  0.24919236    -0.80500
O543        O  0.64604531  0.47572763  0.32644415    -0.80500
O544        O  0.64642171  0.52686083  0.17923485    -0.80600
Co545      Co  0.64717359  0.53957648  0.28573511     1.51500
Co546      Co  0.65131758  0.46284076  0.21893724     1.51700
Co547      Co  0.60849070  0.53353696  0.21397568     1.51600
Co548      Co  0.60959782  0.46599770  0.28999649     1.51500
O549        O  0.62901515  0.50030456  0.25223586    -1.42400
C550        C  0.67641113  0.48828492  0.32316698     1.09100
C551        C  0.67736542  0.51588984  0.18252889     1.09200
C552        C  0.66551478  0.58314945  0.23341555     1.09100
C553        C  0.67001510  0.41939284  0.27312644     1.09100
C554        C  0.72283236  0.25878447  0.23316273     0.01900
C555        C  0.74406996  0.22999034  0.22222374     0.01900
C556        C  0.77331776  0.21950887  0.24271308     0.01900
C557        C  0.78303693  0.23963188  0.27241210     0.01900
C558        C  0.76244525  0.26887755  0.28295228     0.01900
C559        C  0.73379275  0.27984559  0.26198046     0.01900
C560        C  0.78623845  0.74849183  0.73729796     0.01900
C561        C  0.77708512  0.72665406  0.76600210     0.01900
C562        C  0.74681753  0.73444012  0.78617083     0.01900
C563        C  0.72433666  0.76247267  0.77620374     0.01900
C564        C  0.73370630  0.78433562  0.74771536     0.01900
C565        C  0.76336201  0.77617043  0.72688488     0.01900
O566        O  0.18920286  0.00627041  0.78842646    -0.80500
O567        O  0.18033880  0.99002372  0.69735253    -0.80500
O568        O  0.13648149  0.92066408  0.77918198    -0.80500
O569        O  0.13597223  0.07835359  0.71457895    -0.80500
O570        O  0.17749917  0.94141749  0.74797656    -0.80600
O571        O  0.18005856  0.05488633  0.73940428    -0.80500
O572        O  0.14104627  0.02341007  0.67198607    -0.80500
O573        O  0.15229864  0.97520370  0.81895111    -0.80500
C574        C  0.18282122  0.98632109  0.81296877     1.09200
C575        C  0.17133430  0.01038110  0.67366430     1.09100
C576        C  0.16605913  0.91637129  0.76548679     1.09200
C577        C  0.16738454  0.08087193  0.72411455     1.09100
O578        O  0.11575664  0.07392034  0.77367711    -0.80500
O579        O  0.10659609  0.92538545  0.72503395    -0.80600
O580        O  0.08361164  0.00682266  0.80344335    -0.80500
O581        O  0.07358042  0.99712012  0.69517620    -0.80500
O582        O  0.11382843  0.96709915  0.67065257    -0.80600
O583        O  0.12749692  0.03147870  0.82647565    -0.80500
O584        O  0.07342393  0.04906673  0.74443540    -0.80500
O585        O  0.07195990  0.95566477  0.75886900    -0.80600
Co586      Co  0.15227440  0.03814021  0.77893030     1.51500
Co587      Co  0.14440663  0.95942903  0.71340022     1.51700
Co588      Co  0.11138332  0.96762430  0.78701978     1.51600
Co589      Co  0.10672952  0.03362841  0.70992869     1.51500
O590        O  0.12891339  0.99975068  0.74704787    -1.42400
C591        C  0.08461807  0.07338176  0.76335177     1.09100
C592        C  0.07734057  0.93037348  0.73922509     1.09200
C593        C  0.09629033  0.02120304  0.82953966     1.09100
C594        C  0.08363797  0.98014443  0.66916646     1.09100
O595        O  0.75378653  0.43340087  0.54684601    -0.80500
O596        O  0.76319359  0.43135884  0.45383552    -0.80500
O597        O  0.83208401  0.37991285  0.53212592    -0.80500
O598        O  0.67622792  0.39146876  0.46914739    -0.80500
O599        O  0.81152311  0.42382157  0.50410915    -0.80600
O600        O  0.70103270  0.43334770  0.49761386    -0.80500
O601        O  0.72966517  0.39398762  0.42618131    -0.80500
O602        O  0.78018101  0.39142344  0.57533764    -0.80500
C603        C  0.77140596  0.42326477  0.57223533     1.09200
C604        C  0.74326370  0.42403200  0.42928895     1.09100
C605        C  0.83630476  0.41077729  0.52079613     1.09200
C606        C  0.67477411  0.42238283  0.48107337     1.09100
O607        O  0.67918411  0.36805903  0.52681118    -0.80500
O608        O  0.82673522  0.35439976  0.47598725    -0.80600
O609        O  0.74617314  0.32561492  0.55442838    -0.80500
O610        O  0.75178895  0.32397488  0.44643642    -0.80500
O611        O  0.78385511  0.36409069  0.42366985    -0.80600
O612        O  0.72228460  0.37060358  0.57817009    -0.80500
O613        O  0.69974285  0.32481787  0.49576993    -0.80500
O614        O  0.79628920  0.31696207  0.50629311    -0.80600
Co615      Co  0.71774197  0.40067933  0.53415525     1.51500
Co616      Co  0.79299053  0.39328844  0.46744273     1.51700
Co617      Co  0.78555583  0.35411078  0.53874708     1.51600
Co618      Co  0.71781805  0.35877659  0.46279357     1.51500
O619        O  0.75335138  0.37655795  0.50063728    -1.42400
C620        C  0.67641774  0.33753784  0.51476014     1.09100
C621        C  0.82161340  0.32376391  0.48729507     1.09200
C622        C  0.73046391  0.33845524  0.57986667     1.09100
C623        C  0.76955456  0.33426424  0.42112746     1.09100
C624        C  0.97430439  0.47596136  0.51146498     0.01900
C625        C  0.98362497  0.50658578  0.53084677     0.01900
C626        C  0.01213769  0.52783131  0.51977023     0.01900
C627        C  0.03410466  0.51572115  0.49225188     0.01900
C628        C  0.02469746  0.48513746  0.47251148     0.01900
C629        C  0.99546900  0.46446164  0.48312361     0.01900
O630        O  0.81843471  0.64624537  0.02810154    -0.80500
O631        O  0.67450915  0.64350776  0.97663259    -0.80500
O632        O  0.74165298  0.67420588  0.94563552    -0.80500
O633        O  0.75068952  0.67249429  0.06145136    -0.80500
O634        O  0.71636471  0.63058063  0.92210872    -0.80600
O635        O  0.77807580  0.62825896  0.08147944    -0.80500
O636        O  0.70159671  0.68074417  0.01143310    -0.80500
O637        O  0.79084435  0.68342682  0.99381068    -0.80500
C638        C  0.81353158  0.67693106  0.01608782     1.09200
C639        C  0.67783901  0.67364238  0.99031815     1.09100
C640        C  0.72739768  0.66159218  0.91927200     1.09200
C641        C  0.76662148  0.65882323  0.08641391     1.09100
O642        O  0.75670324  0.56578443  0.04440633    -0.80500
O643        O  0.73911959  0.56713318  0.95594840    -0.80600
O644        O  0.82723542  0.62158141  0.97124638    -0.80500
O645        O  0.66863208  0.61661613  0.03266486    -0.80500
O646        O  0.69108921  0.57389653  0.00491638    -0.80600
O647        O  0.80591631  0.57683507  0.99641390    -0.80500
O648        O  0.72233121  0.60176332  0.07321492    -0.80500
O649        O  0.77327379  0.60523006  0.92973245    -0.80600
Co650      Co  0.78641542  0.60491716  0.03424383     1.51500
Co651      Co  0.70858014  0.60457018  0.96817513     1.51700
Co652      Co  0.77995936  0.64530917  0.96330249     1.51600
Co653      Co  0.71421367  0.64244581  0.04117901     1.51500
O654        O  0.74731784  0.62441012  0.00170282    -1.42400
C655        C  0.73555538  0.57163257  0.06825490     1.09100
C656        C  0.76120667  0.57440718  0.93353236     1.09200
C657        C  0.83156158  0.59074152  0.98211528     1.09100
C658        C  0.66549822  0.58606677  0.02066857     1.09100
C659        C  0.47894853  0.50896014  0.97465021     0.01900
C660        C  0.50694051  0.53110353  0.98521353     0.01900
C661        C  0.52750137  0.52188757  0.01484633     0.01900
C662        C  0.51817510  0.49251563  0.03585579     0.01900
C663        C  0.48984782  0.47063272  0.02533446     0.01900
C664        C  0.46916441  0.47997182  0.99581652     0.01900
O665        O  0.79349835  0.18326652  0.00378470    -0.80500
O666        O  0.70486531  0.18285612  0.99790208    -0.80500
O667        O  0.77276418  0.13012791  0.91897767    -0.80500
O668        O  0.72767704  0.12927508  0.08279671    -0.80500
O669        O  0.74642385  0.17427033  0.94161952    -0.80600
O670        O  0.75169106  0.17455492  0.06036098    -0.80500
O671        O  0.68188120  0.14448454  0.03414074    -0.80500
O672        O  0.81866048  0.14558610  0.96833485    -0.80500
C673        C  0.81551652  0.17617652  0.98107026     1.09200
C674        C  0.68479719  0.17552276  0.02218333     1.09100
C675        C  0.76006558  0.16041666  0.91533682     1.09200
C676        C  0.73791285  0.16038550  0.08636099     1.09100
O677        O  0.78437873  0.10632082  0.06947326    -0.80500
O678        O  0.71710217  0.10500460  0.93525849    -0.80600
O679        O  0.80826482  0.07598634  0.00014358    -0.80500
O680        O  0.69111226  0.07403455  0.00300123    -0.80500
O681        O  0.66779542  0.11929612  0.97972812    -0.80600
O682        O  0.83230320  0.12082169  0.02328658    -0.80500
O683        O  0.74854812  0.06667582  0.04800263    -0.80500
O684        O  0.75451806  0.06645592  0.95536651    -0.80600
Co685      Co  0.78677697  0.14558161  0.03597586     1.51500
Co686      Co  0.71290180  0.14460395  0.96708186     1.51700
Co687      Co  0.78550517  0.10512457  0.96446554     1.51600
Co688      Co  0.71551174  0.10412981  0.03789008     1.51500
O689        O  0.75020770  0.12471899  0.00132874    -1.42400
C690        C  0.77108125  0.07593878  0.07008154     1.09100
C691        C  0.73188747  0.07535119  0.93382641     1.09200
C692        C  0.83504773  0.08949883  0.01305535     1.09100
C693        C  0.66454317  0.08790925  0.98955246     1.09100
O694        O  0.35913333  0.52518297  0.67940812    -0.80500
O695        O  0.35726844  0.47019549  0.82054461    -0.80500
O696        O  0.33263419  0.43735483  0.75233422    -0.80500
O697        O  0.33085710  0.55628334  0.74651906    -0.80500
O698        O  0.37666225  0.41691410  0.77934940    -0.80600
O699        O  0.37466520  0.57910552  0.72171299    -0.80500
O700        O  0.32088714  0.50606359  0.79370341    -0.80500
O701        O  0.32277344  0.48790887  0.70419984    -0.80500
C702        C  0.32901107  0.51163169  0.68273753     1.09200
C703        C  0.32691122  0.48276158  0.81554688     1.09100
C704        C  0.34632605  0.41202075  0.76782473     1.09200
C705        C  0.34395776  0.58264974  0.73255363     1.09100
O706        O  0.43637185  0.54241941  0.74427809    -0.80500
O707        O  0.43807304  0.45548171  0.75958290    -0.80600
O708        O  0.38599204  0.46877124  0.66997707    -0.80500
O709        O  0.38175951  0.52749018  0.83157355    -0.80500
O710        O  0.42669862  0.50242081  0.81097114    -0.80600
O711        O  0.42892403  0.49521453  0.69313896    -0.80500
O712        O  0.39912780  0.56969875  0.77851766    -0.80500
O713        O  0.40294196  0.42720863  0.72364742    -0.80600
Co714      Co  0.39904092  0.53201061  0.71289107     1.51500
Co715      Co  0.39891696  0.46477778  0.78919218     1.51700
Co716      Co  0.36170846  0.45875647  0.71610171     1.51600
Co717      Co  0.35904506  0.53649486  0.78415524     1.51500
O718        O  0.37929364  0.49799675  0.75058100    -1.42400
C719        C  0.42935664  0.56586438  0.76576925     1.09100
C720        C  0.43266079  0.43199287  0.73755219     1.09200
C721        C  0.41639759  0.48059251  0.66685673     1.09100
C722        C  0.41247412  0.51696773  0.83641404     1.09100
O723        O  0.77624472  0.89475572  0.43098989    -0.80500
O724        O  0.71972492  0.89740552  0.57432618    -0.80500
O725        O  0.69228670  0.92862101  0.50397984    -0.80500
O726        O  0.80577834  0.92440210  0.50070814    -0.80500
O727        O  0.66802353  0.88629550  0.53114400    -0.80600
O728        O  0.82820862  0.88007433  0.47541428    -0.80500
O729        O  0.75460861  0.93432269  0.54768910    -0.80500
O730        O  0.74232877  0.93392969  0.45593656    -0.80500
C731        C  0.76482688  0.92583749  0.43407084     1.09200
C732        C  0.73303117  0.92759758  0.57093846     1.09100
C733        C  0.66618126  0.91705645  0.51945962     1.09200
C734        C  0.83208052  0.91083064  0.48718077     1.09100
O735        O  0.79068275  0.81751113  0.49608297    -0.80500
O736        O  0.69950037  0.82118986  0.50912955    -0.80600
O737        O  0.71876931  0.87056334  0.42216254    -0.80500
O738        O  0.77504287  0.87065346  0.58316205    -0.80500
O739        O  0.74710600  0.82704983  0.56182998    -0.80600
O740        O  0.74399153  0.82637972  0.44505008    -0.80500
O741        O  0.81732731  0.85462748  0.53120230    -0.80500
O742        O  0.67433053  0.86000304  0.47491727    -0.80600
Co743      Co  0.78131940  0.85552631  0.46518398     1.51500
Co744      Co  0.71216994  0.85834873  0.54053300     1.51700
Co745      Co  0.71018168  0.89740347  0.46767378     1.51600
Co746      Co  0.78487199  0.89546745  0.53711637     1.51500
O747        O  0.74710749  0.87652065  0.50255218    -1.42400
C748        C  0.81284757  0.82399388  0.51885901     1.09100
C749        C  0.67607082  0.82964965  0.48816083     1.09200
C750        C  0.72964991  0.83947581  0.41891124     1.09100
C751        C  0.76264588  0.84032537  0.58740318     1.09100
O752        O  0.06470320  0.54325598  0.25917471    -0.80500
O753        O  0.06679977  0.45066228  0.24724885    -0.80500
O754        O  0.10826661  0.53023312  0.17255678    -0.80500
O755        O  0.11852356  0.46658633  0.32837784    -0.80500
O756        O  0.06686553  0.50081323  0.19609781    -0.80600
O757        O  0.07358472  0.49336602  0.30857664    -0.80500
O758        O  0.10843188  0.42315972  0.27535949    -0.80500
O759        O  0.10140961  0.57218304  0.22628233    -0.80500
C760        C  0.07161111  0.56838456  0.23974467     1.09200
C761        C  0.07703381  0.42569071  0.26556075     1.09100
C762        C  0.07771787  0.51810058  0.17052276     1.09200
C763        C  0.08751615  0.47685505  0.33307337     1.09100
O764        O  0.14161821  0.52431277  0.32339543    -0.80500
O765        O  0.13368032  0.47319046  0.17491329    -0.80600
O766        O  0.17112753  0.55509223  0.25088128    -0.80500
O767        O  0.17373631  0.44592396  0.24310486    -0.80500
O768        O  0.13035680  0.42099769  0.21782841    -0.80600
O769        O  0.12946666  0.57703868  0.28109719    -0.80500
O770        O  0.18000796  0.49469729  0.29328409    -0.80500
O771        O  0.17429064  0.50526402  0.19926995    -0.80600
Co772      Co  0.10267369  0.53133714  0.28958069     1.51500
Co773      Co  0.09986271  0.46461921  0.21259243     1.51700
Co774      Co  0.13861459  0.53727908  0.21554774     1.51600
Co775      Co  0.14442372  0.46083744  0.28195251     1.51500
O776        O  0.12129037  0.49855978  0.24988558    -1.42400
C777        C  0.17241937  0.51370975  0.31852870     1.09100
C778        C  0.16412237  0.48558148  0.17514733     1.09200
C779        C  0.15947308  0.58049767  0.26805772     1.09100
C780        C  0.16197834  0.41998593  0.22703373     1.09100
C781        C  0.48557296  0.49837107  0.53184195     0.01900
C782        C  0.47506309  0.52702246  0.51062260     0.01900
C783        C  0.49573371  0.53645824  0.48120562     0.01900
C784        C  0.52498908  0.51544688  0.47151480     0.01900
C785        C  0.53570473  0.48708355  0.49312922     0.01900
C786        C  0.51462031  0.47735688  0.52207592     0.01900
C787        C  0.01674462  0.50924785  0.03076446     0.01900
C788        C  0.02814972  0.48098401  0.00923768     0.01900
C789        C  0.00672455  0.46936667  0.98106797     0.01900
C790        C  0.97727430  0.48987076  0.97064388     0.01900
C791        C  0.96677605  0.51918360  0.99152402     0.01900
C792        C  0.98725231  0.52949964  0.02085412     0.01900
C793        C  0.03172044  0.51391702  0.06674837    -0.00500
C794        C  0.01800242  0.49376771  0.09374695    -0.12400
C795        C  0.03103160  0.49582299  0.12782792     0.01700
C796        C  0.05801717  0.51960468  0.13640923    -0.00600
C797        C  0.07023888  0.54139826  0.10950862    -0.12300
C798        C  0.05783493  0.53831986  0.07508916     0.01600
H799        H  0.99743335  0.47540308  0.08787339     0.14600
H800        H  0.09107241  0.55958454  0.11488398     0.14600
C801        C  0.07340702  0.55929211  0.04844163     0.36200
C802        C  0.01763843  0.47122472  0.15259137     0.36100
N803        N  0.08607936  0.57591281  0.02699117    -0.44100
N804        N  0.00684320  0.45131966  0.17225543    -0.44100
C805        C  0.43500584  0.48218897  0.63234173    -0.00500
C806        C  0.46222085  0.50632998  0.62818334    -0.12400
C807        C  0.47918499  0.51080634  0.59629600     0.01700
C808        C  0.46819957  0.49241659  0.56651645    -0.00600
C809        C  0.44155426  0.46767009  0.57048235    -0.12300
C810        C  0.42560364  0.46190678  0.60297447     0.01600
H811        H  0.47046672  0.52202358  0.65005651     0.14600
H812        H  0.43355686  0.45237268  0.54824931     0.14600
C813        C  0.40111852  0.43368041  0.60575856     0.36200
C814        C  0.50865746  0.53388445  0.59507852     0.36100
N815        N  0.38206647  0.41050274  0.60796089    -0.44100
N816        N  0.53251797  0.55212070  0.59440069    -0.44100
C817        C  0.46277226  0.51289296  0.93898965    -0.00500
C818        C  0.43502186  0.53587164  0.93306887    -0.12400
C819        C  0.41867770  0.53824362  0.90022618     0.01700
C820        C  0.43004099  0.51753000  0.87183267    -0.00600
C821        C  0.45821834  0.49489094  0.87805103    -0.12300
C822        C  0.47434545  0.49247466  0.91080082     0.01600
H823        H  0.42575759  0.55175590  0.95434434     0.14600
H824        H  0.46740527  0.47822907  0.85734158     0.14600
C825        C  0.50274605  0.46836588  0.91504299     0.36200
C826        C  0.39033429  0.56236726  0.89676086     0.36100
N827        N  0.52549410  0.44904445  0.91856981    -0.44100
N828        N  0.36763753  0.58192636  0.89469344    -0.44100
C829        C  0.86632104  0.57214239  0.98175324    -0.00500
C830        C  0.87088755  0.54294360  0.00337721    -0.12400
C831        C  0.90288140  0.52553423  0.00613999     0.01700
C832        C  0.93171607  0.53621348  0.98640030    -0.00600
C833        C  0.92728398  0.56481605  0.96407809    -0.12300
C834        C  0.89526302  0.58285648  0.96183651     0.01600
H835        H  0.84951941  0.53408453  0.01921162     0.14600
H836        H  0.94898506  0.57334477  0.94855677     0.14600
C837        C  0.89269030  0.61145189  0.93791104     0.36200
C838        C  0.90572775  0.49743281  0.03069891     0.36100
N839        N  0.89080795  0.63403546  0.91824114    -0.44100
N840        N  0.90768281  0.47530435  0.05088064    -0.44100
C841        C  0.63124299  0.56719300  0.02104326    -0.00500
C842        C  0.60621588  0.57595220  0.04596980    -0.12400
C843        C  0.57218641  0.56259142  0.04442332     0.01700
C844        C  0.56294413  0.53798080  0.01869391    -0.00600
C845        C  0.58836554  0.52797264  0.99476778    -0.12300
C846        C  0.62175797  0.54256005  0.99523837     0.01600
H847        H  0.61306085  0.59397654  0.06646769     0.14600
H848        H  0.58172147  0.50910801  0.97486663     0.14600
C849        C  0.64518883  0.53225314  0.96807594     0.36200
C850        C  0.54715834  0.57655509  0.06823651     0.36100
N851        N  0.66387437  0.52361713  0.94635486    -0.44100
N852        N  0.52791120  0.58903944  0.08750155    -0.44100
C853        C  0.04098644  0.47827409  0.43716712    -0.00500
C854        C  0.02068194  0.48445307  0.40749728    -0.12400
C855        C  0.03461322  0.48302068  0.37374881     0.01700
C856        C  0.06992361  0.47413581  0.36825810    -0.00600
C857        C  0.08962237  0.46557891  0.39790333    -0.12300
C858        C  0.07582092  0.46786018  0.43178902     0.01600
H859        H  0.99386562  0.49214525  0.41082048     0.14600
H860        H  0.11647508  0.45812337  0.39481454     0.14600
C861        C  0.09840115  0.45969148  0.46036169     0.36200
C862        C  0.01190418  0.49194228  0.34544669     0.36100
N863        N  0.11712335  0.45312248  0.48283276    -0.44100
N864        N  0.99354701  0.49933611  0.32292772    -0.44100
C865        C  0.64034137  0.44212004  0.48043738    -0.00500
C866        C  0.61099340  0.42633637  0.46476995    -0.12400
C867        C  0.57707569  0.43995955  0.46870816     0.01700
C868        C  0.57132786  0.47083271  0.48787518    -0.00600
C869        C  0.60054649  0.48750314  0.50226301    -0.12300
C870        C  0.63439145  0.47355924  0.49909149     0.01600
H871        H  0.61419618  0.40211917  0.45062244     0.14600
H872        H  0.59675830  0.51134319  0.51692184     0.14600
C873        C  0.66212435  0.49143072  0.51682160     0.36200
C874        C  0.54844686  0.42110647  0.45364746     0.36100
N875        N  0.68425869  0.50569756  0.53130717    -0.44100
N876        N  0.52553540  0.40577502  0.44167206    -0.44100
C877        C  0.87106489  0.42926623  0.52245753    -0.00500
C878        C  0.90058881  0.41183451  0.53550651    -0.12400
C879        C  0.93416377  0.42663131  0.53338837     0.01700
C880        C  0.93917729  0.45941228  0.51747007    -0.00600
C881        C  0.90976863  0.47721775  0.50548979    -0.12300
C882        C  0.87625733  0.46303668  0.50821016     0.01600
H883        H  0.89763752  0.38618348  0.54683703     0.14600
H884        H  0.91312725  0.50234722  0.49315660     0.14600
C885        C  0.84789383  0.48401696  0.49558104     0.36200
C886        C  0.96300898  0.40767965  0.54777025     0.36100
N887        N  0.82526210  0.50097949  0.48546089    -0.44100
N888        N  0.98598523  0.39236953  0.55955381    -0.44100
C889        C  0.76428020  0.82232283  0.62255154    -0.00500
C890        C  0.78563227  0.83601839  0.64909100    -0.12400
C891        C  0.78684230  0.82114853  0.68264206     0.01700
C892        C  0.76593172  0.79207543  0.69098140    -0.00600
C893        C  0.74493719  0.77816092  0.66455069    -0.12300
C894        C  0.74405442  0.79254387  0.63093533     0.01600
H895        H  0.80165934  0.85854898  0.64365639     0.14600
H896        H  0.72866929  0.75588436  0.67038897     0.14600
C897        C  0.72124678  0.77640079  0.60599864     0.36200
C898        C  0.80999404  0.83624918  0.70782317     0.36100
N899        N  0.70289382  0.76327083  0.58616000    -0.44100
N900        N  0.82905086  0.84864238  0.72745216    -0.44100
C901        C  0.74077130  0.71579315  0.82013356    -0.00500
C902        C  0.71732212  0.68780243  0.82266749    -0.12400
C903        C  0.71122540  0.67069520  0.85457061     0.01700
C904        C  0.72933384  0.68084962  0.88501278    -0.00600
C905        C  0.75213341  0.70949048  0.88225874    -0.12300
C906        C  0.75770032  0.72684187  0.85067654     0.01600
H907        H  0.70346467  0.67944912  0.79968642     0.14600
H908        H  0.76625731  0.71830610  0.90491556     0.14600
C909        C  0.78082405  0.75640387  0.85041819     0.36200
C910        C  0.68501273  0.64398847  0.85543779     0.36100
N911        N  0.79918507  0.78024718  0.85051857    -0.44100
N912        N  0.66341095  0.62309213  0.85582570    -0.44100
C913        C  0.73850894  0.21360521  0.18703497    -0.00500
C914        C  0.72253712  0.18087651  0.18353729    -0.12400
C915        C  0.72032845  0.16389260  0.15107340     0.01700
C916        C  0.73544761  0.17906620  0.12103439    -0.00600
C917        C  0.74994055  0.21253844  0.12460481    -0.12300
C918        C  0.75123644  0.22976775  0.15678771     0.01600
H919        H  0.71212563  0.16833169  0.20634951     0.14600
H920        H  0.76113850  0.22517707  0.10223240     0.14600
C921        C  0.76739551  0.26361795  0.15818856     0.36200
C922        C  0.70276780  0.13068893  0.14976936     0.36100
N923        N  0.78064991  0.29065324  0.15866409    -0.44100
N924        N  0.68856490  0.10411781  0.14885407    -0.44100
C925        C  0.76960781  0.31449559  0.38712551    -0.00500
C926        C  0.79526481  0.32158589  0.36226920    -0.12400
C927        C  0.79348560  0.30790099  0.32831012     0.01700
C928        C  0.76674910  0.28449532  0.31879937    -0.00600
C929        C  0.74187569  0.27625541  0.34400171    -0.12300
C930        C  0.74252154  0.29139610  0.37728759     0.01600
H931        H  0.81636724  0.33894133  0.36904587     0.14600
H932        H  0.72090826  0.25869701  0.33714718     0.14600
C933        C  0.71363601  0.28432903  0.39982510     0.36200
C934        C  0.81803691  0.32056936  0.30338169     0.36100
N935        N  0.69029447  0.27886345  0.41771440    -0.44100
N936        N  0.83783018  0.33188239  0.28401934    -0.44100
C937        C  0.70195462  0.48118190  0.34938985    -0.00500
C938        C  0.72841569  0.45779892  0.34156717    -0.12400
C939        C  0.74675168  0.44229738  0.36831671     0.01700
C940        C  0.73701757  0.44935405  0.40264562    -0.00600
C941        C  0.71468992  0.47679509  0.41020153    -0.12300
C942        C  0.69756124  0.49349473  0.38339623     0.01600
H943        H  0.73323191  0.45012137  0.31499214     0.14600
H944        H  0.70880227  0.48341283  0.43684369     0.14600
C945        C  0.67629859  0.52323094  0.39140859     0.36200
C946        C  0.77521288  0.41950442  0.36004904     0.36100
N947        N  0.66078591  0.54792751  0.39871952    -0.44100
N948        N  0.79880373  0.40248154  0.35275083    -0.44100
C949        C  0.70042094  0.52009321  0.15361592    -0.00500
C950        C  0.68797297  0.50942546  0.12125353    -0.12400
C951        C  0.70365581  0.52126396  0.09136721     0.01700
C952        C  0.73044516  0.54559459  0.09442388    -0.00600
C953        C  0.74624659  0.55183780  0.12645982    -0.12300
C954        C  0.73176788  0.53829157  0.15637585     0.01600
H955        H  0.66480393  0.49366003  0.11938856     0.14600
H956        H  0.76795827  0.56962845  0.12830734     0.14600
C957        C  0.74807758  0.54536510  0.18919242     0.36200
C958        C  0.69121557  0.50910001  0.05832951     0.36100
N959        N  0.76211602  0.55048553  0.21515306    -0.44100
N960        N  0.68162076  0.49802342  0.03216853    -0.44100
C961        C  0.57233187  0.47852100  0.13587716    -0.00500
C962        C  0.54042398  0.49633945  0.13332602    -0.12400
C963        C  0.52265138  0.50024620  0.10158706     0.01700
C964        C  0.53625386  0.48638544  0.07051579    -0.00600
C965        C  0.56741550  0.46735971  0.07290234    -0.12300
C966        C  0.58518388  0.46309733  0.10491928     0.01600
H967        H  0.52952426  0.50839676  0.15621862     0.14600
H968        H  0.57809097  0.45596479  0.04957808     0.14600
C969        C  0.61638360  0.44245221  0.10506209     0.36200
C970        C  0.49109433  0.52036808  0.10144133     0.36100
N971        N  0.64135728  0.42576689  0.10506221    -0.44100
N972        N  0.46612616  0.53704954  0.10154927    -0.44100
C973        C  0.56914618  0.52063632  0.36681638    -0.00500
C974        C  0.57960061  0.54451866  0.39263674    -0.12400
C975        C  0.56659061  0.54305449  0.42678967     0.01700
C976        C  0.54044285  0.51886925  0.43560087    -0.00600
C977        C  0.52853053  0.49628405  0.40942388    -0.12300
C978        C  0.54284934  0.49639648  0.37585026     0.01600
H979        H  0.59877604  0.56404292  0.38635022     0.14600
H980        H  0.50843649  0.47757056  0.41560517     0.14600
C981        C  0.53085637  0.47014004  0.35184850     0.36200
C982        C  0.58225646  0.56519183  0.45258914     0.36100
N983        N  0.52121268  0.44904529  0.33265065    -0.44100
N984        N  0.59581166  0.58276112  0.47287956    -0.44100
C985        C  0.71874008  0.31608990  0.26740483    -0.00500
C986        C  0.69049750  0.32178263  0.28958098    -0.12400
C987        C  0.67625656  0.35555029  0.29445023     0.01700
C988        C  0.68926851  0.38480840  0.27581916    -0.00600
C989        C  0.71889187  0.37916914  0.25537886    -0.12300
C990        C  0.73369561  0.34569243  0.25147298     0.01600
H991        H  0.67927523  0.29972121  0.30296167     0.14600
H992        H  0.73007769  0.40085561  0.24136788     0.14600
C993        C  0.76467028  0.34260634  0.23100908     0.36200
C994        C  0.64737914  0.35895052  0.31778007     0.36100
N995        N  0.78987307  0.34087995  0.21502371    -0.44100
N996        N  0.62421694  0.36164117  0.33651061    -0.44100
C997        C  0.73073837  0.82063760  0.38413667    -0.00500
C998        C  0.75351183  0.79212009  0.37988599    -0.12400
C999        C  0.75825480  0.77556133  0.34756484     0.01700
C1000       C  0.74034790  0.78714358  0.31780665    -0.00600
C1001       C  0.71688129  0.81497721  0.32188468    -0.12300
C1002       C  0.71182766  0.83146006  0.35442217     0.01600
H1003       H  0.76835822  0.78291954  0.40187243     0.14600
H1004       H  0.70247549  0.82398230  0.29953813     0.14600
C1005       C  0.68638346  0.85887276  0.35661051     0.36200
C1006       C  0.78165740  0.74628478  0.34554996     0.36100
N1007       N  0.66571251  0.88064458  0.35832349    -0.44100
N1008       N  0.80025338  0.72268681  0.34381441    -0.44100
C1009       C  0.76888005  0.67728694  0.12131245    -0.00500
C1010       C  0.75157701  0.70941842  0.12577348    -0.12400
C1011       C  0.75091365  0.72692577  0.15791084     0.01700
C1012       C  0.76729507  0.71252801  0.18731452    -0.00600
C1013       C  0.78522544  0.68086109  0.18306971    -0.12300
C1014       C  0.78664654  0.66361210  0.15059803     0.01600
H1015       H  0.73802488  0.72096129  0.10405333     0.14600
H1016       H  0.79813815  0.66946766  0.20523673     0.14600
C1017       C  0.80761078  0.63259952  0.14808218     0.36200
C1018       C  0.73248583  0.75958833  0.16033216     0.36100
N1019       N  0.82492603  0.60803885  0.14619368    -0.44100
N1020       N  0.71771310  0.78576364  0.16240535    -0.44100
C1021       C  0.71600673  0.68574034  0.23724260    -0.00500
C1022       C  0.73137744  0.65660218  0.25279143    -0.12400
C1023       C  0.71579644  0.62345984  0.25180517     0.01700
C1024       C  0.68450987  0.61783621  0.23303169    -0.00600
C1025       C  0.66983673  0.64700727  0.21612802    -0.12300
C1026       C  0.68501875  0.68061463  0.21836554     0.01600
H1027       H  0.75520394  0.66018123  0.26731792     0.14600
H1028       H  0.64585619  0.64383808  0.20183217     0.14600
C1029       C  0.66809399  0.70940345  0.20140886     0.36200
C1030       C  0.73174189  0.59662236  0.27255236     0.36100
N1031       N  0.65426129  0.73234023  0.18774256    -0.44100
N1032       N  0.74460454  0.57544134  0.28955741    -0.44100
C1033       C  0.19580622  0.01887428  0.64722972    -0.00500
C1034       C  0.22200957  0.04201355  0.65610909    -0.12400
C1035       C  0.23968728  0.05926789  0.63031689     0.01700
C1036       C  0.23025567  0.05361040  0.59560471    -0.00600
C1037       C  0.20769498  0.02667862  0.58668225    -0.12300
C1038       C  0.19059341  0.00872040  0.61263283     0.01600
H1039       H  0.22707101  0.04827007  0.68304255     0.14600
H1040       H  0.20179227  0.02130704  0.55974686     0.14600
C1041       C  0.16879497  0.97977428  0.60317707     0.36200
C1042       C  0.26701431  0.08252333  0.64049414     0.36100
N1043       N  0.15280114  0.95577669  0.59459777    -0.44100
N1044       N  0.28938269  0.09981372  0.65046792    -0.44100
C1045       C  0.52290947  0.34123278  0.20580809    -0.00500
C1046       C  0.55578897  0.33503861  0.21872406    -0.12400
C1047       C  0.57690555  0.36265901  0.22746927     0.01700
C1048       C  0.56285424  0.39667881  0.22933181    -0.00600
C1049       C  0.52759493  0.40193822  0.22233503    -0.12300
C1050       C  0.50776745  0.37446824  0.20905972     0.01600
H1051       H  0.56673814  0.30922738  0.21712547     0.14600
H1052       H  0.51662049  0.42793267  0.22389192     0.14600
C1053       C  0.47334144  0.38144924  0.19620875     0.36200
C1054       C  0.61346032  0.35531865  0.22831865     0.36100
N1055       N  0.44574690  0.38709757  0.18591570    -0.44100
N1056       N  0.64251637  0.34852607  0.22630275    -0.44100
C1057       C  0.66239162  0.20204644  0.03612149    -0.00500
C1058       C  0.66152447  0.20289931  0.07176008    -0.12400
C1059       C  0.63171032  0.21132759  0.08868318     0.01700
C1060       C  0.60246080  0.22263565  0.06933827    -0.00600
C1061       C  0.60541199  0.22780593  0.03353370    -0.12300
C1062       C  0.63551509  0.21702822  0.01656149     0.01600
H1063       H  0.68182967  0.19207346  0.08618241     0.14600
H1064       H  0.58375474  0.23790766  0.01877626     0.14600
C1065       C  0.63743586  0.21946378  0.97940936     0.36200
C1066       C  0.63210607  0.20354207  0.12535701     0.36100
N1067       N  0.63915684  0.22187162  0.94965266    -0.44100
N1068       N  0.63295942  0.19573502  0.15422505    -0.44100
C1069       C  0.48507010  0.36656641  0.07218197    -0.00500
C1070       C  0.46465099  0.39412688  0.08519538    -0.12400
C1071       C  0.46466048  0.42758172  0.06997441     0.01700
C1072       C  0.48615785  0.43484002  0.04138345    -0.00600
C1073       C  0.50616795  0.40731621  0.02794370    -0.12300
C1074       C  0.50561951  0.37361100  0.04261657     0.01600
H1075       H  0.44817396  0.38951475  0.10735961     0.14600
H1076       H  0.52265005  0.41231446  0.00584293     0.14600
C1077       C  0.52701585  0.34711174  0.02693856     0.36200
C1078       C  0.44146440  0.45341670  0.08385721     0.36100
N1079       N  0.54413856  0.32590213  0.01424350    -0.44100
N1080       N  0.42206161  0.47320239  0.09544430    -0.44100
C1081       C  0.61811547  0.26771543  0.18721300    -0.00500
C1082       C  0.62411836  0.24895038  0.21801260    -0.12400
C1083       C  0.65747247  0.24678467  0.23331269     0.01700
C1084       C  0.68653397  0.26318841  0.21803106    -0.00600
C1085       C  0.68054025  0.28310627  0.18812509    -0.12300
C1086       C  0.64705510  0.28582946  0.17304889     0.01600
H1087       H  0.60280053  0.23509369  0.22989536     0.14600
H1088       H  0.70207298  0.29687870  0.17656163     0.14600
C1089       C  0.64306332  0.30874072  0.14378425     0.36200
C1090       C  0.66138786  0.22721476  0.26489700     0.36100
N1091       N  0.63975139  0.32752107  0.12063328    -0.44100
N1092       N  0.66462369  0.21177354  0.29036829    -0.44100
C1093       C  0.56234167  0.03505524  0.99304638    -0.00500
C1094       C  0.56609908  0.06773941  0.97698679    -0.12400
C1095       C  0.59870109  0.08469978  0.97454259     0.01700
C1096       C  0.62932880  0.06934315  0.98860052    -0.00600
C1097       C  0.62541935  0.03623517  0.00409798    -0.12300
C1098       C  0.59277741  0.01935566  0.00636982     0.01600
H1099       H  0.54332359  0.08044827  0.96658040     0.14600
H1100       H  0.64791734  0.02357435  0.01522110     0.14600
C1101       C  0.59094843  0.98595792  0.02335442     0.36200
C1102       C  0.59948206  0.11810524  0.95747731     0.36100
N1103       N  0.58933744  0.95917055  0.03696874    -0.44100
N1104       N  0.59980065  0.14484074  0.94366368    -0.44100
C1105       C  0.51221198  0.06101453  0.04585350    -0.00500
C1106       C  0.50092853  0.09156708  0.02942634    -0.12400
C1107       C  0.50269780  0.12448370  0.04561873     0.01700
C1108       C  0.51586177  0.12809952  0.07993116    -0.00600
C1109       C  0.52769546  0.09738410  0.09628374    -0.12300
C1110       C  0.52616514  0.06433159  0.07964028     0.01600
H1111       H  0.48980211  0.08955328  0.00370901     0.14600
H1112       H  0.53787983  0.09904310  0.12238007     0.14600
C1113       C  0.53912137  0.03430356  0.09787476     0.36200
C1114       C  0.48974000  0.15379265  0.02610123     0.36100
N1115       N  0.54971408  0.01048389  0.11286122    -0.44100
N1116       N  0.47921733  0.17707165  0.01023730    -0.44100
C1117       C  0.68957550  0.03106483  0.84692134    -0.00500
C1118       C  0.70695107  0.00751457  0.86885786    -0.12400
C1119       C  0.72409053  0.02048959  0.89817519     0.01700
C1120       C  0.72740157  0.05682301  0.90150139    -0.00600
C1121       C  0.71786143  0.07851657  0.87416295    -0.12300
C1122       C  0.69278037  0.06706270  0.85223205     0.01600
H1123       H  0.70346627  0.97963471  0.86556043     0.14600
H1124       H  0.72249486  0.10640726  0.87530210     0.14600
C1125       C  0.66683149  0.09249785  0.84280648     0.36200
C1126       C  0.73531220  0.99698279  0.92501114     0.36100
N1127       N  0.64604060  0.11361345  0.83763366    -0.44100
N1128       N  0.74434391  0.97815858  0.94657072    -0.44100
C1129       C  0.72697909  0.95237192  0.59818576    -0.00500
C1130       C  0.73985859  0.94332120  0.63087575    -0.12400
C1131       C  0.72321001  0.95507391  0.66044863     0.01700
C1132       C  0.69284092  0.97462492  0.65657559    -0.00600
C1133       C  0.68314380  0.98773278  0.62420999    -0.12300
C1134       C  0.70078021  0.97733511  0.59480169     0.01600
H1135       H  0.76086412  0.92465674  0.63318291     0.14600
H1136       H  0.66077571  0.00460913  0.62175619     0.14600
C1137       C  0.69036026  0.99095165  0.56164054     0.36200
C1138       C  0.73649795  0.94525200  0.69390357     0.36100
N1139       N  0.68223164  0.00271281  0.53532043    -0.44100
N1140       N  0.74806057  0.93798645  0.72054041    -0.44100
C1141       C  0.67558722  0.88208708  0.73764513    -0.00500
C1142       C  0.70662530  0.88009582  0.75684486    -0.12400
C1143       C  0.72631717  0.84927772  0.75860371     0.01700
C1144       C  0.71462797  0.81837792  0.74241159    -0.00600
C1145       C  0.68375988  0.81993294  0.72307215    -0.12300
C1146       C  0.66457347  0.85131795  0.72017426     0.01600
H1147       H  0.71563282  0.90276386  0.77104893     0.14600
H1148       H  0.67452358  0.79648830  0.71031810     0.14600
C1149       C  0.63384770  0.85099141  0.69891633     0.36200
C1150       C  0.75823824  0.84983489  0.77812234     0.36100
N1151       N  0.60933704  0.85059673  0.68163660    -0.44100
N1152       N  0.78371030  0.85036599  0.79394822    -0.44100
C1153       C  0.56142762  0.98421175  0.87056322    -0.00500
C1154       C  0.53841772  0.01123277  0.87954999    -0.12400
C1155       C  0.52384098  0.01367093  0.91290321     0.01700
C1156       C  0.53151170  0.98852481  0.93859731    -0.00600
C1157       C  0.55390282  0.96105614  0.92963736    -0.12300
C1158       C  0.56883291  0.95877300  0.89627760     0.01600
H1159       H  0.53234118  0.03117074  0.86065402     0.14600
H1160       H  0.55983594  0.94134636  0.94881154     0.14600
C1161       C  0.59123745  0.92956995  0.88901834     0.36200
C1162       C  0.50027943  0.04202708  0.91998760     0.36100
N1163       N  0.60917070  0.90610495  0.88322245    -0.44100
N1164       N  0.48132747  0.06468172  0.92570112    -0.44100
C1165       C  0.52056703  0.65652498  0.29446366    -0.00500
C1166       C  0.50792150  0.62328782  0.30249460    -0.12400
C1167       C  0.52415599  0.59378683  0.28936992     0.01700
C1168       C  0.55411927  0.59817182  0.26952756    -0.00600
C1169       C  0.56362190  0.63126809  0.25754800    -0.12300
C1170       C  0.54618153  0.66066398  0.26925526     0.01600
H1171       H  0.48735608  0.62042309  0.32123824     0.14600
H1172       H  0.58582360  0.63422414  0.24067252     0.14600
C1173       C  0.55598354  0.69450486  0.25641423     0.36200
C1174       C  0.51134309  0.55973869  0.29864079     0.36100
N1175       N  0.56346345  0.72138359  0.24515844    -0.44100
N1176       N  0.50049861  0.53253404  0.30561338    -0.44100
C1177       C  0.59559536  0.77455280  0.44420681    -0.00500
C1178       C  0.58750326  0.79960549  0.46885025    -0.12400
C1179       C  0.61390017  0.81465357  0.48798271     0.01700
C1180       C  0.64848364  0.80554999  0.48074023    -0.00600
C1181       C  0.65593759  0.77692864  0.45986188    -0.12300
C1182       C  0.62924704  0.76068360  0.44196874     0.01600
H1183       H  0.56102056  0.80859701  0.47184034     0.14600
H1184       H  0.68256160  0.76894752  0.45568106     0.14600
C1185       C  0.63698379  0.73004526  0.42184531     0.36200
C1186       C  0.60456487  0.83865143  0.51499149     0.36100
N1187       N  0.64377017  0.70472963  0.40706177    -0.44100
N1188       N  0.59537809  0.85644387  0.53728607    -0.44100
C1189       C  0.48961891  0.57078233  0.46290637    -0.00500
C1190       C  0.47068937  0.57242726  0.43181920    -0.12400
C1191       C  0.46707795  0.60411539  0.41329348     0.01700
C1192       C  0.48299318  0.63529755  0.42546892    -0.00600
C1193       C  0.50129298  0.63338630  0.45701728    -0.12300
C1194       C  0.50472129  0.60194140  0.47543595     0.01600
H1195       H  0.45886157  0.54879995  0.42184362     0.14600
H1196       H  0.51384237  0.65654492  0.46719910     0.14600
C1197       C  0.52552612  0.60209493  0.50648042     0.36200
C1198       C  0.44627366  0.60374917  0.38229760     0.36100
N1199       N  0.54264375  0.60242672  0.53108276    -0.44100
N1200       N  0.42925987  0.60327118  0.35762357    -0.44100
C1201       C  0.68812454  0.73827100  0.28732239    -0.00500
C1202       C  0.66194390  0.76121311  0.27644763    -0.12400
C1203       C  0.62815919  0.75960048  0.29003894     0.01700
C1204       C  0.61920916  0.73388390  0.31490324    -0.00600
C1205       C  0.64526786  0.71013428  0.32478414    -0.12300
C1206       C  0.67941991  0.71254866  0.31190247     0.01600
H1207       H  0.66814198  0.78099212  0.25743363     0.14600
H1208       H  0.63903306  0.68964979  0.34291467     0.14600
C1209       C  0.70529587  0.68905055  0.32523217     0.36200
C1210       C  0.60371039  0.78558389  0.27849700     0.36100
N1211       N  0.72596189  0.67019147  0.33617768    -0.44100
N1212       N  0.58420190  0.80635988  0.26893938    -0.44100
C1213       C  0.63243279  0.93661336  0.51828442    -0.00500
C1214       C  0.62473295  0.95666273  0.48886164    -0.12400
C1215       C  0.59228405  0.97269609  0.48450291     0.01700
C1216       C  0.56547442  0.96742032  0.50884982    -0.00600
C1217       C  0.57354638  0.94844635  0.53900876    -0.12300
C1218       C  0.60699650  0.93443062  0.54445212     0.01600
H1219       H  0.64420933  0.95985752  0.46897484     0.14600
H1220       H  0.55396126  0.94523892  0.55874045     0.14600
C1221       C  0.61522249  0.91964236  0.57776574     0.36200
C1222       C  0.58781376  0.99600579  0.45557399     0.36100
N1223       N  0.62195181  0.90807735  0.60456508    -0.44100
N1224       N  0.58444521  0.01486806  0.43249498    -0.44100
C1225       C  0.43328781  0.03901154  0.48146365    -0.00500
C1226       C  0.40786664  0.03169612  0.50637212    -0.12400
C1227       C  0.37394896  0.04530388  0.50415793     0.01700
C1228       C  0.36390051  0.06720248  0.47622889    -0.00600
C1229       C  0.38918357  0.07376288  0.45069374    -0.12300
C1230       C  0.42350185  0.06056619  0.45338503     0.01600
H1231       H  0.41467673  0.01512392  0.52803952     0.14600
H1232       H  0.38242846  0.09020272  0.42894080     0.14600
C1233       C  0.44866334  0.07109957  0.42800887     0.36200
C1234       C  0.35054395  0.03718272  0.53202100     0.36100
N1235       N  0.46886699  0.07980245  0.40774637    -0.44100
N1236       N  0.33193945  0.03055072  0.55446576    -0.44100
C1237       C  0.53525125  0.01641813  0.56171020    -0.00500
C1238       C  0.51708886  0.00403332  0.59072898    -0.12400
C1239       C  0.53186555  0.00367669  0.62432217     0.01700
C1240       C  0.56623057  0.01584577  0.63028922    -0.00600
C1241       C  0.58396034  0.02935621  0.60127658    -0.12300
C1242       C  0.56898330  0.02976342  0.56764988     0.01600
H1243       H  0.49124190  0.99361296  0.58694931     0.14600
H1244       H  0.60993882  0.03947024  0.60467973     0.14600
C1245       C  0.58893972  0.04396212  0.53958938     0.36200
C1246       C  0.51082333  0.99031069  0.65206506     0.36100
N1247       N  0.60515758  0.05540049  0.51721520    -0.44100
N1248       N  0.49382698  0.97963958  0.67424967    -0.44100
C1249       C  0.51554709  0.93864967  0.45704146    -0.00500
C1250       C  0.53431765  0.93526556  0.42606580    -0.12400
C1251       C  0.53892800  0.90253689  0.40968424     0.01700
C1252       C  0.52284552  0.87207439  0.42288968    -0.00600
C1253       C  0.50493890  0.87550510  0.45452726    -0.12300
C1254       C  0.50165893  0.90793573  0.47160222     0.01600
H1255       H  0.54556899  0.95821628  0.41446160     0.14600
H1256       H  0.49282666  0.85278560  0.46592354     0.14600
C1257       C  0.48325090  0.90924427  0.50399919     0.36200
C1258       C  0.56185364  0.90099803  0.38044037     0.36100
N1259       N  0.46867490  0.91047188  0.53006758    -0.44100
N1260       N  0.58120089  0.90014678  0.35769809    -0.44100
C1261       C  0.43660953  0.89645617  0.26723289    -0.00500
C1262       C  0.47257979  0.90065968  0.26963051    -0.12400
C1263       C  0.49278197  0.87281401  0.28102277     0.01700
C1264       C  0.47658834  0.84089186  0.28830170    -0.00600
C1265       C  0.44293139  0.83485475  0.27785928    -0.12300
C1266       C  0.42195606  0.86268384  0.27002488     0.01600
H1267       H  0.48429844  0.92606342  0.26579540     0.14600
H1268       H  0.43160062  0.80936921  0.28118755     0.14600
C1269       C  0.38538567  0.85574580  0.27128562     0.36200
C1270       C  0.52944188  0.87760089  0.28600614     0.36100
N1271       N  0.35646370  0.84912978  0.27485401    -0.44100
N1272       N  0.55901128  0.88142719  0.28888936    -0.44100
C1273       C  0.42996885  0.10675484  0.23256123    -0.00500
C1274       C  0.46607495  0.10423927  0.23052812    -0.12400
C1275       C  0.48490087  0.13264300  0.21851719     0.01700
C1276       C  0.46724961  0.16380636  0.21120175    -0.00600
C1277       C  0.43306956  0.16826179  0.22033235    -0.12300
C1278       C  0.41345108  0.13950749  0.22807930     0.01600
H1279       H  0.47889970  0.07939560  0.23450195     0.14600
H1280       H  0.42046790  0.19295861  0.21563136     0.14600
C1281       C  0.37662247  0.14424749  0.22453348     0.36200
C1282       C  0.52110424  0.12833018  0.21033322     0.36100
N1283       N  0.34763690  0.14915934  0.21901183    -0.44100
N1284       N  0.55011852  0.12494454  0.20373716    -0.44100
C1285       C  0.26286984  0.05610444  0.39807868    -0.00500
C1286       C  0.28091872  0.02542289  0.40532478    -0.12400
C1287       C  0.29560961  0.00674094  0.37825170     0.01700
C1288       C  0.29332187  0.02023273  0.34461132    -0.00600
C1289       C  0.27069637  0.04722346  0.33696734    -0.12300
C1290       C  0.25473172  0.06490947  0.36367947     0.01600
H1291       H  0.28528324  0.01737441  0.43185062     0.14600
H1292       H  0.26723328  0.05585014  0.31049244     0.14600
C1293       C  0.22988200  0.09121718  0.35472338     0.36200
C1294       C  0.31189523  0.97364451  0.38505319     0.36100
N1295       N  0.20915400  0.11079383  0.34550460    -0.44100
N1296       N  0.32335838  0.94630378  0.39037074    -0.44100
C1297       C  0.42906831  0.02037335  0.13778975    -0.00500
C1298       C  0.44978308  0.99108650  0.13029171    -0.12400
C1299       C  0.46555246  0.98657000  0.09779374     0.01700
C1300       C  0.45948364  0.01056333  0.07067809    -0.00600
C1301       C  0.44025635  0.04083544  0.07859283    -0.12300
C1302       C  0.42616336  0.04636129  0.11197684     0.01600
H1303       H  0.45345508  0.97120717  0.14985255     0.14600
H1304       H  0.43679064  0.06054761  0.05885464     0.14600
C1305       C  0.40953175  0.07922519  0.11940840     0.36200
C1306       C  0.48891115  0.95749045  0.09328054     0.36100
N1307       N  0.39645386  0.10567920  0.12550054    -0.44100
N1308       N  0.50750724  0.93411789  0.08958879    -0.44100
C1309       C  0.42852667  0.97943148  0.36317932    -0.00500
C1310       C  0.41243173  0.96872422  0.39413194    -0.12400
C1311       C  0.42877189  0.97209562  0.42684449     0.01700
C1312       C  0.46210699  0.98703512  0.42977654    -0.00600
C1313       C  0.47919868  0.99567926  0.39881655    -0.12300
C1314       C  0.46320591  0.99164193  0.36605774     0.01600
H1315       H  0.38668630  0.95804233  0.39295932     0.14600
H1316       H  0.50517601  0.00632108  0.40027093     0.14600
C1317       C  0.48349406  0.99972287  0.33583780     0.36200
C1318       C  0.41097061  0.95951952  0.45705096     0.36100
N1319       N  0.49988859  0.00586354  0.31160285    -0.44100
N1320       N  0.39676697  0.94926079  0.48128119    -0.44100
C1321       C  0.58271953  0.28646748  0.53828780    -0.00500
C1322       C  0.58284131  0.32229446  0.53505121    -0.12400
C1323       C  0.61326302  0.33947927  0.52835753     0.01700
C1324       C  0.64323374  0.31997684  0.51943657    -0.00600
C1325       C  0.64072156  0.28363802  0.51536064    -0.12300
C1326       C  0.61039733  0.26656979  0.52542949     0.01600
H1327       H  0.56085339  0.33693892  0.54299724     0.14600
H1328       H  0.66295885  0.26855686  0.50710803     0.14600
C1329       C  0.60881955  0.22897129  0.52464105     0.36200
C1330       C  0.61304860  0.37637299  0.53614139     0.36100
N1331       N  0.60731385  0.19882929  0.52387613    -0.44100
N1332       N  0.61268208  0.40544198  0.54417118    -0.44100
C1333       C  0.54515483  0.09078435  0.71999388    -0.00500
C1334       C  0.53767264  0.08798315  0.68521201    -0.12400
C1335       C  0.53263267  0.11753294  0.66600942     0.01700
C1336       C  0.52831085  0.14991492  0.68324048    -0.00600
C1337       C  0.52930296  0.15147832  0.71945936    -0.12300
C1338       C  0.53908071  0.12201187  0.73804882     0.01600
H1339       H  0.54109271  0.06347835  0.67217849     0.14600
H1340       H  0.52526981  0.17604963  0.73281182     0.14600
C1341       C  0.54553913  0.12490484  0.77473494     0.36200
C1342       C  0.53716888  0.11351282  0.62912348     0.36100
N1343       N  0.55068584  0.12715445  0.80414602    -0.44100
N1344       N  0.54281539  0.10957979  0.60002086    -0.44100
C1345       C  0.40167367  0.22977904  0.55431850    -0.00500
C1346       C  0.41048125  0.20608572  0.52853320    -0.12400
C1347       C  0.38449036  0.18990311  0.50976711     0.01700
C1348       C  0.34974358  0.19714702  0.51792604    -0.00600
C1349       C  0.34124796  0.22432028  0.54024980    -0.12300
C1350       C  0.36732414  0.24116071  0.55836826     0.01600
H1351       H  0.43733339  0.19899718  0.52428847     0.14600
H1352       H  0.31433670  0.23061549  0.54534309     0.14600
C1353       C  0.35810389  0.26980080  0.58062492     0.36200
C1354       C  0.39423268  0.16654460  0.48228609     0.36100
N1355       N  0.34972030  0.29343419  0.59719620    -0.44100
N1356       N  0.40333417  0.14915035  0.45963469    -0.44100
C1357       C  0.48645116  0.34704199  0.70196683    -0.00500
C1358       C  0.49844903  0.38009784  0.69228556    -0.12400
C1359       C  0.48484633  0.40971925  0.70783036     0.01700
C1360       C  0.45862511  0.40556019  0.73237830    -0.00600
C1361       C  0.45129690  0.37264427  0.74606853    -0.12300
C1362       C  0.46552010  0.34301832  0.73115881     0.01600
H1363       H  0.51584849  0.38283689  0.67048296     0.14600
H1364       H  0.43187288  0.36995914  0.76596838     0.14600
C1365       C  0.45581587  0.30920687  0.74416061     0.36200
C1366       C  0.49617604  0.44361744  0.69645341     0.36100
N1367       N  0.44825081  0.28236604  0.75543088    -0.44100
N1368       N  0.50615027  0.47059161  0.68758921    -0.44100
C1369       C  0.51442193  0.37451297  0.57069015    -0.00500
C1370       C  0.53566042  0.40145232  0.58400015    -0.12400
C1371       C  0.53754701  0.43454920  0.56797187     0.01700
C1372       C  0.51782274  0.44163731  0.53804398    -0.00600
C1373       C  0.49688692  0.41487615  0.52462092    -0.12300
C1374       C  0.49509947  0.38181446  0.54022584     0.01600
H1375       H  0.55105040  0.39667896  0.60698184     0.14600
H1376       H  0.48108302  0.42018624  0.50200367     0.14600
C1377       C  0.47244693  0.35635303  0.52444813     0.36200
C1378       C  0.56015044  0.46069521  0.58249551     0.36100
N1379       N  0.45424692  0.33606533  0.51165820    -0.44100
N1380       N  0.57866270  0.48143571  0.59402819    -0.44100
C1381       C  0.47799593  0.13581031  0.56409823    -0.00500
C1382       C  0.49628577  0.13136260  0.53286454    -0.12400
C1383       C  0.50018637  0.09826151  0.51722206     0.01700
C1384       C  0.48476663  0.06825952  0.53179882    -0.00600
C1385       C  0.46558036  0.07250516  0.56231009    -0.12300
C1386       C  0.46234110  0.10547742  0.57859108     0.01600
H1387       H  0.50920660  0.15357516  0.52137366     0.14600
H1388       H  0.45375551  0.04977709  0.57398718     0.14600
C1389       C  0.44413664  0.10671973  0.61108143     0.36200
C1390       C  0.52181871  0.09532550  0.48698268     0.36100
N1391       N  0.42987625  0.10737124  0.63734555    -0.44100
N1392       N  0.53942688  0.09273518  0.46295921    -0.44100
C1393       C  0.27510445  0.18542087  0.61398739    -0.00500
C1394       C  0.24933853  0.21045198  0.62137534    -0.12400
C1395       C  0.24618562  0.22600302  0.65438966     0.01700
C1396       C  0.26737312  0.21526274  0.68232294    -0.00600
C1397       C  0.29478139  0.19216917  0.67450559    -0.12300
C1398       C  0.29959009  0.17863730  0.64054613     0.01600
H1399       H  0.23127175  0.21800134  0.60124084     0.14600
H1400       H  0.31282910  0.18505244  0.69477193     0.14600
C1401       C  0.33097678  0.15976395  0.63297407     0.36200
C1402       C  0.22226196  0.25460598  0.65845829     0.36100
N1403       N  0.35620222  0.14477048  0.62672215    -0.44100
N1404       N  0.20368093  0.27808346  0.66150105    -0.44100
C1405       C  0.18672069  0.11545711  0.72264771    -0.00500
C1406       C  0.17075593  0.14498328  0.70756090    -0.12400
C1407       C  0.18414490  0.17914306  0.71221308     0.01700
C1408       C  0.21528633  0.18457719  0.73088260    -0.00600
C1409       C  0.23237856  0.15503357  0.74389368    -0.12300
C1410       C  0.21849483  0.12116988  0.74049975     0.01600
H1411       H  0.14632312  0.14175774  0.69405746     0.14600
H1412       H  0.25639008  0.15864399  0.75809283     0.14600
C1413       C  0.23683355  0.09326758  0.75754881     0.36200
C1414       C  0.16424868  0.20801664  0.69907236     0.36100
N1415       N  0.25150855  0.07107392  0.77155232    -0.44100
N1416       N  0.14747827  0.23068108  0.68859614    -0.44100
C1417       C  0.29101001  0.31152674  0.76804241    -0.00500
C1418       C  0.32352983  0.31439149  0.78431188    -0.12400
C1419       C  0.34141221  0.34670203  0.78610997     0.01700
C1420       C  0.32759891  0.37707434  0.77003258    -0.00600
C1421       C  0.29448779  0.37398741  0.75476983    -0.12300
C1422       C  0.27621731  0.34217305  0.75418105     0.01600
H1423       H  0.33508075  0.29125251  0.79553406     0.14600
H1424       H  0.28264824  0.39662094  0.74286729     0.14600
C1425       C  0.24248440  0.34132942  0.73800387     0.36200
C1426       C  0.37325925  0.34779679  0.80560429     0.36100
N1427       N  0.21544011  0.34053505  0.72506864    -0.44100
N1428       N  0.39844509  0.34830467  0.82188563    -0.44100
C1429       C  0.31933478  0.26194300  0.71662321    -0.00500
C1430       C  0.34678694  0.24113164  0.72873067    -0.12400
C1431       C  0.38028316  0.24328702  0.71436928     0.01700
C1432       C  0.38755201  0.26777465  0.68786693    -0.00600
C1433       C  0.36043785  0.29019598  0.67767107    -0.12300
C1434       C  0.32657311  0.28677192  0.69080751     0.01600
H1435       H  0.34167697  0.22216695  0.74884483     0.14600
H1436       H  0.36550394  0.31008475  0.65855149     0.14600
C1437       C  0.29949731  0.30807693  0.67624428     0.36200
C1438       C  0.40608648  0.21905671  0.72668320     0.36100
N1439       N  0.27799610  0.32509548  0.66400893    -0.44100
N1440       N  0.42669132  0.19966191  0.73682106    -0.44100
C1441       C  0.29918169  0.47078472  0.83730907    -0.00500
C1442       C  0.29152684  0.43576409  0.83438026    -0.12400
C1443       C  0.28208275  0.41706784  0.86306149     0.01700
C1444       C  0.27488162  0.43499508  0.89434427    -0.00600
C1445       C  0.27600761  0.47159037  0.89516170    -0.12300
C1446       C  0.28914835  0.48968312  0.86677587     0.01600
H1447       H  0.29753439  0.42212959  0.81091400     0.14600
H1448       H  0.26958417  0.48562183  0.91865994     0.14600
C1449       C  0.29411136  0.52690901  0.86895470     0.36200
C1450       C  0.28545309  0.37969810  0.85989852     0.36100
N1451       N  0.29767394  0.55683864  0.87036808    -0.44100
N1452       N  0.29049638  0.35016786  0.85654778    -0.44100
C1453       C  0.22465073  0.45952789  0.08838729    -0.00500
C1454       C  0.19104609  0.47078302  0.08332926    -0.12400
C1455       C  0.17049649  0.47784871  0.11150723     0.01700
C1456       C  0.18562578  0.48010866  0.14478943    -0.00600
C1457       C  0.22147011  0.47585012  0.14866231    -0.12300
C1458       C  0.24102189  0.46431831  0.12056489     0.01600
H1459       H  0.17930029  0.46838880  0.05811637     0.14600
H1460       H  0.23343278  0.47832320  0.17395556     0.14600
C1461       C  0.27703683  0.45576565  0.12549388     0.36200
C1462       C  0.13378297  0.47625161  0.10548289     0.36100
N1463       N  0.30608592  0.44953370  0.12937292    -0.44100
N1464       N  0.10468357  0.47226114  0.09988728    -0.44100
C1465       C  0.41349534  0.27368892  0.04506002    -0.00500
C1466       C  0.41553101  0.30899821  0.03833659    -0.12400
C1467       C  0.38576885  0.32781821  0.03247747     0.01700
C1468       C  0.35394532  0.30999220  0.02677174    -0.00600
C1469       C  0.35374370  0.27336505  0.02599087    -0.12300
C1470       C  0.38345715  0.25500528  0.03601090     0.01600
H1471       H  0.43929302  0.32272934  0.04355983     0.14600
H1472       H  0.33003146  0.25933832  0.02023331     0.14600
C1473       C  0.38237364  0.21750410  0.03856284     0.36200
C1474       C  0.38882119  0.36500017  0.03780482     0.36100
N1475       N  0.38188960  0.18736836  0.04002137    -0.44100
N1476       N  0.39149232  0.39440260  0.04398076    -0.44100
C1477       C  0.06448281  0.46637458  0.01341721    -0.00500
C1478       C  0.09201856  0.48180506  0.99509155    -0.12400
C1479       C  0.12602016  0.46785564  0.99588998     0.01700
C1480       C  0.13361419  0.43754588  0.01558891    -0.00600
C1481       C  0.10640761  0.42399766  0.03580921    -0.12300
C1482       C  0.07226648  0.43729593  0.03425400     0.01600
H1483       H  0.08673318  0.50460979  0.97940660     0.14600
H1484       H  0.11198974  0.40315954  0.05356165     0.14600
C1485       C  0.04569185  0.42065536  0.05444906     0.36200
C1486       C  0.15250238  0.48565161  0.97650765     0.36100
N1487       N  0.02446399  0.40723559  0.07074551    -0.44100
N1488       N  0.17372072  0.50022583  0.96118136    -0.44100
C1489       C  0.43422533  0.46289338  0.98978208    -0.00500
C1490       C  0.43084244  0.43192693  0.97047248    -0.12400
C1491       C  0.39807069  0.41602862  0.96503089     0.01700
C1492       C  0.36745366  0.43073803  0.97951994    -0.00600
C1493       C  0.37109207  0.46260322  0.99747635    -0.12300
C1494       C  0.40364751  0.47848795  0.00255697     0.01600
H1495       H  0.45389779  0.42000341  0.95974875     0.14600
H1496       H  0.34847680  0.47474829  0.00886256     0.14600
C1497       C  0.40509842  0.51065856  0.02193235     0.36200
C1498       C  0.39689798  0.38439178  0.94480504     0.36100
N1499       N  0.40615333  0.53637187  0.03760657    -0.44100
N1500       N  0.39607252  0.35908010  0.92845803    -0.44100
C1501       C  0.23073228  0.31109838  0.88645513    -0.00500
C1502       C  0.25273501  0.28229581  0.88044108    -0.12400
C1503       C  0.25719968  0.26780838  0.84692468     0.01700
C1504       C  0.23890934  0.28107435  0.81797003    -0.00600
C1505       C  0.21567050  0.30859093  0.82399264    -0.12300
C1506       C  0.21165183  0.32368528  0.85728631     0.01600
H1507       H  0.26805120  0.27211231  0.90165593     0.14600
H1508       H  0.20117390  0.31903280  0.80232306     0.14600
C1509       C  0.18874308  0.35325696  0.85999511     0.36200
C1510       C  0.28166815  0.23973239  0.84257753     0.36100
N1511       N  0.17068007  0.37726349  0.86174005    -0.44100
N1512       N  0.30131399  0.21725656  0.83887852    -0.44100
C1513       C  0.21220363  0.31891044  0.23392209    -0.00500
C1514       C  0.19099656  0.32674066  0.20527519    -0.12400
C1515       C  0.17754164  0.36064737  0.20022170     0.01700
C1516       C  0.18267012  0.38679167  0.22558970    -0.00600
C1517       C  0.20589657  0.37959153  0.25275159    -0.12300
C1518       C  0.22130470  0.34659063  0.25643072     0.01600
H1519       H  0.18471078  0.30640822  0.18687295     0.14600
H1520       H  0.21134236  0.39952485  0.27195184     0.14600
C1521       C  0.24595100  0.34165270  0.28414174     0.36200
C1522       C  0.15853415  0.36797503  0.16887713     0.36100
N1523       N  0.26546357  0.33795883  0.30658665    -0.44100
N1524       N  0.14355695  0.37390500  0.14360890    -0.44100
C1525       C  0.23136217  0.21879727  0.31672623    -0.00500
C1526       C  0.20258258  0.19829423  0.32647559    -0.12400
C1527       C  0.19863691  0.18535656  0.36065309     0.01700
C1528       C  0.22537710  0.18943017  0.38548152    -0.00600
C1529       C  0.25308237  0.21140691  0.37640136    -0.12300
C1530       C  0.25558622  0.22677211  0.34330879     0.01600
H1531       H  0.18292377  0.19211649  0.30761648     0.14600
H1532       H  0.27336782  0.21643640  0.39520825     0.14600
C1533       C  0.28333816  0.25123614  0.33795174     0.36200
C1534       C  0.16625712  0.16917770  0.37002164     0.36100
N1535       N  0.30594817  0.27076370  0.33510530    -0.44100
N1536       N  0.14015871  0.15656797  0.37765857    -0.44100
C1537       C  0.30970122  0.23583396  0.21245465    -0.00500
C1538       C  0.31401938  0.21553192  0.18237727    -0.12400
C1539       C  0.34639226  0.21363133  0.16508157     0.01700
C1540       C  0.37570582  0.23227493  0.17777370    -0.00600
C1541       C  0.37092275  0.25249185  0.20782184    -0.12300
C1542       C  0.33868376  0.25488476  0.22450131     0.01600
H1543       H  0.29189189  0.20164831  0.17192373     0.14600
H1544       H  0.39232216  0.26779698  0.21787692     0.14600
C1545       C  0.33547552  0.27978769  0.25226188     0.36200
C1546       C  0.34845937  0.19219126  0.13451936     0.36100
N1547       N  0.33337987  0.30081735  0.27362616    -0.44100
N1548       N  0.34959001  0.17473927  0.11011261    -0.44100
C1549       C  0.27784409  0.18390563  0.26323639    -0.00500
C1550       C  0.30224227  0.17613153  0.28921811    -0.12400
C1551       C  0.31555229  0.14196355  0.29380721     0.01700
C1552       C  0.30514039  0.11408161  0.27169150    -0.00600
C1553       C  0.27954005  0.12164620  0.24681037    -0.12300
C1554       C  0.26649997  0.15578165  0.24213166     0.01600
H1555       H  0.31183777  0.19694432  0.30550518     0.14600
H1556       H  0.27126261  0.10125743  0.22915498     0.14600
C1557       C  0.24294044  0.16127810  0.21375308     0.36200
C1558       C  0.34035937  0.13659984  0.32124167     0.36100
N1559       N  0.22463824  0.16464008  0.19029269    -0.44100
N1560       N  0.36015548  0.13247157  0.34337483    -0.44100
C1561       C  0.26829286  0.32375057  0.11854846    -0.00500
C1562       C  0.24596835  0.29493450  0.12255554    -0.12400
C1563       C  0.24246528  0.27735737  0.15425957     0.01700
C1564       C  0.26122344  0.28819994  0.18381645    -0.00600
C1565       C  0.28457027  0.31617783  0.17989976    -0.12300
C1566       C  0.28859931  0.33350763  0.14771381     0.01600
H1567       H  0.23011243  0.28646822  0.10093198     0.14600
H1568       H  0.29961690  0.32464748  0.20206344     0.14600
C1569       C  0.31496676  0.35994143  0.14509903     0.36200
C1570       C  0.21761378  0.24935236  0.15612731     0.36100
N1571       N  0.33682500  0.38048016  0.14322238    -0.44100
N1572       N  0.19706640  0.22743724  0.15714747    -0.44100
C1573       C  0.84813344  0.29783015  0.48155432    -0.00500
C1574       C  0.88178990  0.30610073  0.49242792    -0.12400
C1575       C  0.90996446  0.28880274  0.47817883     0.01700
C1576       C  0.90397053  0.26474749  0.45144653    -0.00600
C1577       C  0.87031833  0.25300667  0.44435732    -0.12300
C1578       C  0.84212553  0.26884703  0.46020786     0.01600
H1579       H  0.88608513  0.32759269  0.51024209     0.14600
H1580       H  0.86601930  0.23337681  0.42460525     0.14600
C1581       C  0.80760528  0.25681284  0.45221583     0.36200
C1582       C  0.94440567  0.29789634  0.48959364     0.36100
N1583       N  0.78002577  0.24660661  0.44624682    -0.44100
N1584       N  0.97182799  0.30494163  0.49952260    -0.44100
C1585       C  0.15509265  0.20438969  0.48166161    -0.00500
C1586       C  0.16341003  0.22434677  0.45308703    -0.12400
C1587       C  0.13723933  0.23735537  0.43251557     0.01700
C1588       C  0.10251672  0.23125081  0.44174540    -0.00600
C1589       C  0.09453830  0.21665178  0.47382699    -0.12300
C1590       C  0.12101147  0.20306908  0.49409719     0.01600
H1591       H  0.19011885  0.22653302  0.44478110     0.14600
H1592       H  0.06778375  0.21362720  0.48177604     0.14600
C1593       C  0.11286118  0.18778320  0.52709537     0.36200
C1594       C  0.14750841  0.25502020  0.40157741     0.36100
N1595       N  0.10610220  0.17676937  0.55405832    -0.44100
N1596       N  0.15851530  0.26884933  0.37756584    -0.44100
C1597       C  0.05309579  0.39796942  0.27346586    -0.00500
C1598       C  0.02337019  0.40624391  0.29214929    -0.12400
C1599       C  0.00374832  0.37964505  0.30648523     0.01700
C1600       C  0.01408289  0.34484836  0.30140080    -0.00600
C1601       C  0.04023727  0.33665049  0.27829738    -0.12300
C1602       C  0.06026945  0.36305025  0.26457599     0.01600
H1603       H  0.01698929  0.43323614  0.29753565     0.14600
H1604       H  0.04729477  0.30961587  0.27380811     0.14600
C1605       C  0.08822437  0.35280822  0.24245558     0.36200
C1606       C  0.97416709  0.38864523  0.32726777     0.36100
N1607       N  0.10960524  0.34203707  0.22462395    -0.44100
N1608       N  0.95012199  0.39656277  0.34318409    -0.44100
C1609       C  0.97979682  0.36151171  0.43433203    -0.00500
C1610       C  0.00875522  0.36867080  0.45545533    -0.12400
C1611       C  0.01330793  0.40115941  0.47195753     0.01700
C1612       C  0.98950664  0.42872735  0.46667951    -0.00600
C1613       C  0.95971796  0.42132935  0.44667266    -0.12300
C1614       C  0.95436880  0.38801034  0.43136853     0.01600
H1615       H  0.02822723  0.34865458  0.45924226     0.14600
H1616       H  0.94033767  0.44147811  0.44331940     0.14600
C1617       C  0.92167124  0.38093046  0.41467687     0.36200
C1618       C  0.04167564  0.40468500  0.49605649     0.36100
N1619       N  0.89531273  0.37502892  0.40160066    -0.44100
N1620       N  0.06397994  0.40681077  0.51598621    -0.44100
C1621       C  0.88395187  0.22151998  0.32151477    -0.00500
C1622       C  0.88080452  0.23943507  0.28987876    -0.12400
C1623       C  0.84855436  0.24487247  0.27388086     0.01700
C1624       C  0.81774505  0.23273480  0.28931439    -0.00600
C1625       C  0.82059971  0.21333608  0.32004348    -0.12300
C1626       C  0.85320091  0.20726738  0.33589328     0.01600
H1627       H  0.90365520  0.25038446  0.27783439     0.14600
H1628       H  0.79731160  0.20284933  0.33164831     0.14600
C1629       C  0.85418801  0.18588606  0.36649960     0.36200
C1630       C  0.84770250  0.26472261  0.24224253     0.36100
N1631       N  0.85487029  0.16837634  0.39082276    -0.44100
N1632       N  0.84727332  0.28110963  0.21717063    -0.44100
C1633       C  0.10961298  0.27300632  0.30958347    -0.00500
C1634       C  0.11850984  0.24583332  0.28672339    -0.12400
C1635       C  0.15186596  0.24331032  0.27216522     0.01700
C1636       C  0.17840250  0.26701709  0.28166052    -0.00600
C1637       C  0.16875002  0.29576105  0.30233092    -0.12300
C1638       C  0.13452705  0.29963954  0.31493670     0.01600
H1639       H  0.09970497  0.22560696  0.28103013     0.14600
H1640       H  0.18792604  0.31493290  0.30951019     0.14600
C1641       C  0.12594114  0.33072630  0.33421363     0.36200
C1642       C  0.15847216  0.21521761  0.24819351     0.36100
N1643       N  0.11891896  0.35576145  0.34942686    -0.44100
N1644       N  0.16351305  0.19237467  0.22929363    -0.44100
C1645       C  0.80078063  0.48982402  0.65377356    -0.00500
C1646       C  0.78053726  0.46110831  0.66115275    -0.12400
C1647       C  0.77060336  0.43898183  0.63478426     0.01700
C1648       C  0.77831623  0.44756268  0.60020829    -0.00600
C1649       C  0.79316629  0.47994425  0.59257700    -0.12300
C1650       C  0.80500607  0.50109326  0.61948443     0.01600
H1651       H  0.77680682  0.45326165  0.68782633     0.14600
H1652       H  0.79777697  0.48740861  0.56594636     0.14600
C1653       C  0.82245980  0.53334605  0.61161794     0.36200
C1654       C  0.75568968  0.40660963  0.64538209     0.36100
N1655       N  0.83563099  0.55962352  0.60515639    -0.44100
N1656       N  0.74490423  0.38142413  0.65742851    -0.44100
C1657       C  0.80974219  0.52865098  0.85198694    -0.00500
C1658       C  0.77350933  0.53034857  0.85014019    -0.12400
C1659       C  0.75485160  0.54105675  0.87914339     0.01700
C1660       C  0.77273747  0.54762921  0.91017392    -0.00600
C1661       C  0.80727240  0.53896460  0.91347842    -0.12300
C1662       C  0.82663196  0.53272125  0.88441635     0.01600
H1663       H  0.76026423  0.52623224  0.82570939     0.14600
H1664       H  0.82020900  0.54234889  0.93794487     0.14600
C1665       C  0.86363510  0.53612052  0.88871967     0.36200
C1666       C  0.71812482  0.54716587  0.87617722     0.36100
N1667       N  0.89304122  0.54079505  0.89199248    -0.44100
N1668       N  0.68858639  0.55161749  0.87387146    -0.44100
C1669       C  0.93598844  0.51664615  0.63386837    -0.00500
C1670       C  0.92350429  0.53626746  0.60563795    -0.12400
C1671       C  0.93855221  0.53420173  0.57234004     0.01700
C1672       C  0.96735706  0.51228482  0.56618924    -0.00600
C1673       C  0.98039130  0.49318285  0.59440373    -0.12300
C1674       C  0.96530712  0.49508294  0.62764557     0.01600
H1675       H  0.90178200  0.55356846  0.60953663     0.14600
H1676       H  0.00236478  0.47606938  0.59026298     0.14600
C1677       C  0.98039484  0.47391538  0.65455669     0.36200
C1678       C  0.92337795  0.55466850  0.54505172     0.36100
N1679       N  0.99258456  0.45687538  0.67604242    -0.44100
N1680       N  0.91046280  0.57127759  0.52367134    -0.44100
C1681       C  0.92842532  0.47562385  0.86795770    -0.00500
C1682       C  0.96223344  0.48914202  0.87175551    -0.12400
C1683       C  0.97831000  0.49282528  0.90447613     0.01700
C1684       C  0.96081874  0.48347940  0.93523219    -0.00600
C1685       C  0.92777460  0.46829648  0.93164420    -0.12300
C1686       C  0.91190472  0.46371649  0.89871023     0.01600
H1687       H  0.97600164  0.49806616  0.84905617     0.14600
H1688       H  0.91411114  0.46021495  0.95471035     0.14600
C1689       C  0.87807944  0.44777502  0.89763355     0.36200
C1690       C  0.01274291  0.50739141  0.90589035     0.36100
N1691       N  0.85096240  0.43493595  0.89691732    -0.44100
N1692       N  0.04043108  0.51887858  0.90705123    -0.44100
C1693       C  0.82942219  0.62464044  0.77204282    -0.00500
C1694       C  0.80083157  0.63071269  0.74997600    -0.12400
C1695       C  0.78373872  0.66315690  0.74864595     0.01700
C1696       C  0.79463270  0.69133335  0.76955807    -0.00600
C1697       C  0.82265859  0.68555390  0.79231039    -0.12300
C1698       C  0.83985037  0.65272165  0.79379785     0.01600
H1699       H  0.79189559  0.61007260  0.73295221     0.14600
H1700       H  0.83127133  0.70674111  0.80882604     0.14600
C1701       C  0.86745431  0.64837455  0.81853037     0.36200
C1702       C  0.75495096  0.66721307  0.72507790     0.36100
N1703       N  0.88939852  0.64489885  0.83864405    -0.44100
N1704       N  0.73186075  0.67087793  0.70630514    -0.44100
C1705       C  0.71479125  0.18020246  0.75397921    -0.00500
C1706       C  0.73046630  0.15219334  0.77232745    -0.12400
C1707       C  0.71377152  0.11906340  0.77526574     0.01700
C1708       C  0.67877501  0.11480376  0.76410127    -0.00600
C1709       C  0.66478162  0.14223702  0.74471403    -0.12300
C1710       C  0.68693719  0.16866491  0.73271057     0.01600
H1711       H  0.75632937  0.15523969  0.78272318     0.14600
H1712       H  0.64064568  0.13761049  0.73100960     0.14600
C1713       C  0.69533324  0.16257758  0.69681926     0.36200
C1714       C  0.73388903  0.08981891  0.78720087     0.36100
N1715       N  0.70230646  0.15594937  0.66845797    -0.44100
N1716       N  0.75058942  0.06638623  0.79600542    -0.44100
C1717       C  0.75857427  0.17793033  0.88012433    -0.00500
C1718       C  0.78901191  0.18975054  0.86432453    -0.12400
C1719       C  0.78720772  0.21458438  0.83731084     0.01700
C1720       C  0.75788119  0.21530741  0.81466743    -0.00600
C1721       C  0.72695392  0.20301503  0.83042338    -0.12300
C1722       C  0.72699152  0.18607758  0.86315449     0.01600
H1723       H  0.81301706  0.18707645  0.87874625     0.14600
H1724       H  0.70239577  0.20710153  0.81748001     0.14600
C1725       C  0.69430650  0.17716519  0.87871920     0.36200
C1726       C  0.79933845  0.24735055  0.85070550     0.36100
N1727       N  0.66813150  0.17026036  0.89146483    -0.44100
N1728       N  0.80743998  0.27284682  0.86460834    -0.44100
C1729       C  0.62010065  0.23392096  0.66875110    -0.00500
C1730       C  0.62168720  0.24086125  0.70467313    -0.12400
C1731       C  0.65346370  0.24294088  0.72281434     0.01700
C1732       C  0.68527476  0.23814565  0.70546377    -0.00600
C1733       C  0.68374271  0.23180042  0.66949080    -0.12300
C1734       C  0.65202371  0.22881108  0.65146098     0.01600
H1735       H  0.59787975  0.24514197  0.71883667     0.14600
H1736       H  0.70765637  0.22756689  0.65553688     0.14600
C1737       C  0.65361561  0.21996660  0.61530574     0.36200
C1738       C  0.65286871  0.25090090  0.75927956     0.36100
N1739       N  0.65591993  0.21232207  0.58647337    -0.44100
N1740       N  0.65255202  0.25731681  0.78852282    -0.44100
C1741       C  0.73624049  0.28814684  0.68070631    -0.00500
C1742       C  0.70812720  0.31035139  0.67295716    -0.12400
C1743       C  0.70345579  0.32429792  0.63930866     0.01700
C1744       C  0.72844085  0.31811133  0.61319371    -0.00600
C1745       C  0.75495549  0.29399544  0.62047926    -0.12300
C1746       C  0.75846551  0.27859761  0.65325377     0.01600
H1747       H  0.68955362  0.31636812  0.69305798     0.14600
H1748       H  0.77374276  0.28762686  0.60066672     0.14600
C1749       C  0.78461127  0.25206309  0.65785833     0.36200
C1750       C  0.67350892  0.34573679  0.63250806     0.36100
N1751       N  0.80537045  0.23060883  0.66146653    -0.44100
N1752       N  0.64940360  0.36278033  0.62695998    -0.44100
C1753       C  0.80830076  0.39010497  0.72702850    -0.00500
C1754       C  0.78299665  0.38175267  0.75193664    -0.12400
C1755       C  0.76890711  0.34764849  0.75462107     0.01700
C1756       C  0.78153252  0.31981698  0.73393897    -0.00600
C1757       C  0.80460224  0.32879006  0.70723928    -0.12300
C1758       C  0.81663702  0.36349187  0.70274882     0.01600
H1759       H  0.77471771  0.40166079  0.77004991     0.14600
H1760       H  0.81366986  0.30865144  0.68987867     0.14600
C1761       C  0.83855003  0.37072135  0.67342963     0.36200
C1762       C  0.74149276  0.34157173  0.77914615     0.36100
N1763       N  0.85608000  0.37647004  0.64990702    -0.44100
N1764       N  0.71923119  0.33652901  0.79845743    -0.44100
C1765       C  0.51771973  0.84705105  0.80219364    -0.00500
C1766       C  0.50424529  0.87934192  0.81240737    -0.12400
C1767       C  0.51628682  0.90950898  0.79705487     0.01700
C1768       C  0.54245519  0.90640048  0.77236147    -0.00600
C1769       C  0.55096316  0.87405314  0.75790169    -0.12300
C1770       C  0.53821842  0.84385573  0.77259961     0.01600
H1771       H  0.48665986  0.88107181  0.83410894     0.14600
H1772       H  0.57028893  0.87232599  0.73772411     0.14600
C1773       C  0.54934090  0.81046977  0.75933608     0.36200
C1774       C  0.50366060  0.94290921  0.80879127     0.36100
N1775       N  0.55804171  0.78384793  0.74821195    -0.44100
N1776       N  0.49282131  0.96949851  0.81793980    -0.44100
C1777       C  0.59771615  0.73084079  0.94903635    -0.00500
C1778       C  0.59018148  0.70815003  0.97597936    -0.12400
C1779       C  0.61719145  0.69303008  0.99423915     0.01700
C1780       C  0.65144362  0.69912474  0.98351959    -0.00600
C1781       C  0.65887619  0.72570811  0.96031942    -0.12300
C1782       C  0.63180342  0.74267600  0.94383414     0.01600
H1783       H  0.56359468  0.70087113  0.98142039     0.14600
H1784       H  0.68550309  0.73184834  0.95380846     0.14600
C1785       C  0.63946364  0.77305176  0.92353554     0.36200
C1786       C  0.60923029  0.67215491  0.02403163     0.36100
N1787       N  0.64650064  0.79851758  0.90928395    -0.44100
N1788       N  0.60208618  0.65700011  0.04879387    -0.44100
C1789       C  0.48477601  0.65030839  0.80122719    -0.00500
C1790       C  0.49588840  0.61705390  0.81107445    -0.12400
C1791       C  0.48133523  0.58784203  0.79576031     0.01700
C1792       C  0.45445591  0.59269495  0.77194208    -0.00600
C1793       C  0.44729286  0.62573747  0.75832146    -0.12300
C1794       C  0.46329542  0.65490695  0.77235598     0.01600
H1795       H  0.51375499  0.61398995  0.83249262     0.14600
H1796       H  0.42747261  0.62889977  0.73862954     0.14600
C1797       C  0.45529764  0.68898941  0.75870288     0.36200
C1798       C  0.49257387  0.55364553  0.80645465     0.36100
N1799       N  0.44927165  0.71617672  0.74722855    -0.44100
N1800       N  0.50236114  0.52636099  0.81462908    -0.44100
C1801       C  0.52071277  0.63244043  0.93290713    -0.00500
C1802       C  0.50134150  0.62920431  0.96363329    -0.12400
C1803       C  0.49730230  0.59693490  0.98073719     0.01700
C1804       C  0.51246684  0.56610980  0.96750969    -0.00600
C1805       C  0.53264842  0.56911173  0.93740645    -0.12300
C1806       C  0.53718012  0.60161529  0.92041988     0.01600
H1807       H  0.48849915  0.65197736  0.97420279     0.14600
H1808       H  0.54494512  0.54592250  0.92706746     0.14600
C1809       C  0.55923796  0.60230780  0.89041722     0.36200
C1810       C  0.47674066  0.59607316  0.01178764     0.36100
N1811       N  0.57715926  0.60262876  0.86649192    -0.44100
N1812       N  0.46032738  0.59566278  0.03675245    -0.44100
C1813       C  0.68829544  0.76557177  0.79188941    -0.00500
C1814       C  0.66202459  0.74323745  0.77971595    -0.12400
C1815       C  0.62798102  0.74428839  0.79309390     0.01700
C1816       C  0.61851461  0.76924617  0.81871714    -0.00600
C1817       C  0.64446443  0.79284030  0.82934424    -0.12300
C1818       C  0.67906094  0.79034426  0.81745506     0.01600
H1819       H  0.66840926  0.72414192  0.76000125     0.14600
H1820       H  0.63783256  0.81314236  0.84759309     0.14600
C1821       C  0.70477370  0.81212638  0.83372451     0.36200
C1822       C  0.60384202  0.71840142  0.78058066     0.36100
N1823       N  0.72488725  0.82945292  0.84784513    -0.44100
N1824       N  0.58466174  0.69753190  0.77042998    -0.44100
C1825       C  0.47706267  0.86602436  0.93142620    -0.00500
C1826       C  0.46719918  0.89680755  0.91391687    -0.12400
C1827       C  0.46860163  0.93025676  0.92985648     0.01700
C1828       C  0.48026122  0.93425845  0.96450287    -0.00600
C1829       C  0.48849245  0.90341426  0.98250777    -0.12300
C1830       C  0.48694074  0.87000455  0.96672002     0.01600
H1831       H  0.45875652  0.89495454  0.88725973     0.14600
H1832       H  0.49691814  0.90548660  0.00920994     0.14600
C1833       C  0.49559562  0.84026395  0.98782590     0.36200
C1834       C  0.45726115  0.95977646  0.90986783     0.36100
N1835       N  0.50238859  0.81646632  0.00489872    -0.44100
N1836       N  0.44778874  0.98286025  0.89311421    -0.44100
C1837       C  0.21681018  0.81347951  0.76484320    -0.00500
C1838       C  0.23308850  0.84265737  0.75017857    -0.12400
C1839       C  0.21762805  0.87600402  0.75044379     0.01700
C1840       C  0.18513614  0.88157832  0.76681231    -0.00600
C1841       C  0.16984100  0.85245338  0.78306410    -0.12300
C1842       C  0.18497866  0.81881664  0.78187878     0.01600
H1843       H  0.25758408  0.83901380  0.73700189     0.14600
H1844       H  0.14576958  0.85578289  0.79660875     0.14600
C1845       C  0.16744767  0.79023708  0.79850294     0.36200
C1846       C  0.23558058  0.90355592  0.73253896     0.36100
N1847       N  0.15331106  0.76738302  0.81191899    -0.44100
N1848       N  0.24998813  0.92546623  0.71791417    -0.44100
C1849       C  0.32462001  0.61728945  0.73126174    -0.00500
C1850       C  0.33929327  0.64660992  0.71466429    -0.12400
C1851       C  0.32257082  0.67959400  0.71460822     0.01700
C1852       C  0.29039559  0.68415652  0.73134953    -0.00600
C1853       C  0.27548427  0.65497037  0.74726818    -0.12300
C1854       C  0.29189977  0.62215641  0.74747167     0.01600
H1855       H  0.36412069  0.64394914  0.70194562     0.14600
H1856       H  0.25127829  0.65824014  0.76104956     0.14600
C1857       C  0.27470900  0.59447942  0.76595573     0.36200
C1858       C  0.33891442  0.70851203  0.69738659     0.36100
N1859       N  0.26081716  0.57248657  0.78095439    -0.44100
N1860       N  0.35187704  0.73176079  0.68346919    -0.44100
C1861       C  0.32006058  0.73472475  0.78193608    -0.00500
C1862       C  0.32913268  0.70465619  0.80081878    -0.12400
C1863       C  0.36286003  0.70026871  0.81467463     0.01700
C1864       C  0.38789990  0.72709843  0.81175945    -0.00600
C1865       C  0.37931266  0.75613815  0.79120802    -0.12300
C1866       C  0.34629528  0.75976815  0.77601297     0.01600
H1867       H  0.30986493  0.68456241  0.80487989     0.14600
H1868       H  0.39825256  0.77667148  0.78757113     0.14600
C1869       C  0.34010754  0.78925225  0.75368237     0.36200
C1870       C  0.37112753  0.66812516  0.83209143     0.36100
N1871       N  0.33505070  0.81273290  0.73561740    -0.44100
N1872       N  0.37798558  0.64236160  0.84600261    -0.44100
C1873       C  0.22912215  0.54702730  0.40344274    -0.00500
C1874       C  0.24074702  0.55662858  0.37054757    -0.12400
C1875       C  0.22539658  0.54238864  0.34128165     0.01700
C1876       C  0.19756734  0.51935869  0.34558675    -0.00600
C1877       C  0.18974780  0.50586894  0.37828364    -0.12300
C1878       C  0.20601521  0.51920968  0.40751268     0.01600
H1879       H  0.25968573  0.57733576  0.36778304     0.14600
H1880       H  0.16928502  0.48677049  0.38110360     0.14600
C1881       C  0.19673306  0.50597899  0.44112414     0.36200
C1882       C  0.23692588  0.55369111  0.30770068     0.36100
N1883       N  0.18960785  0.49479680  0.46793414    -0.44100
N1884       N  0.24714513  0.56257396  0.28105639    -0.44100
C1885       C  0.27906669  0.56195356  0.60332256    -0.00500
C1886       C  0.28258933  0.52562432  0.60030080    -0.12400
C1887       C  0.29518310  0.50636450  0.62829207     0.01700
C1888       C  0.30193494  0.52355588  0.65975132    -0.00600
C1889       C  0.29223124  0.55800888  0.66417887    -0.12300
C1890       C  0.28362307  0.57809246  0.63596771     0.01600
H1891       H  0.27841126  0.51291156  0.57555836     0.14600
H1892       H  0.29585331  0.57042783  0.68885712     0.14600
C1893       C  0.28485953  0.61532966  0.64117490     0.36200
C1894       C  0.30301456  0.46985810  0.62372504     0.36100
N1895       N  0.28817523  0.64489996  0.64602016    -0.44100
N1896       N  0.30893196  0.44049562  0.62011921    -0.44100
C1897       C  0.35472738  0.69067050  0.47068869    -0.00500
C1898       C  0.35185785  0.72705291  0.46795574    -0.12400
C1899       C  0.38003238  0.74651516  0.45600636     0.01700
C1900       C  0.41139092  0.72938640  0.44870618    -0.00600
C1901       C  0.41583773  0.69494950  0.45821351    -0.12300
C1902       C  0.38758814  0.67472387  0.46644211     0.01600
H1903       H  0.32718888  0.73975719  0.47247861     0.14600
H1904       H  0.44058697  0.68264140  0.45463540     0.14600
C1905       C  0.39321122  0.63755139  0.46523843     0.36200
C1906       C  0.37607812  0.78346133  0.45055267     0.36100
N1907       N  0.39861830  0.60807832  0.46200679    -0.44100
N1908       N  0.37290591  0.81324571  0.44707612    -0.44100
C1909       C  0.43877481  0.54179312  0.51499584    -0.00500
C1910       C  0.41113319  0.52448045  0.49845827    -0.12400
C1911       C  0.37660304  0.53656899  0.50071291     0.01700
C1912       C  0.36856609  0.56733135  0.51965290    -0.00600
C1913       C  0.39603355  0.58339513  0.53786516    -0.12300
C1914       C  0.43050577  0.57108807  0.53578594     0.01600
H1915       H  0.41667173  0.50136505  0.48322316     0.14600
H1916       H  0.39083226  0.60668859  0.55293357     0.14600
C1917       C  0.45645793  0.58969725  0.55519026     0.36200
C1918       C  0.35032131  0.51722707  0.48228235     0.36100
N1919       N  0.47604837  0.60561848  0.57150225    -0.44100
N1920       N  0.32934105  0.50152516  0.46754157    -0.44100
C1921       C  0.13791565  0.56189856  0.48530354    -0.00500
C1922       C  0.11405059  0.56590037  0.45792075    -0.12400
C1923       C  0.08014656  0.55199591  0.45954620     0.01700
C1924       C  0.06964519  0.53205188  0.48839076    -0.00600
C1925       C  0.09386400  0.52708130  0.51519874    -0.12300
C1926       C  0.12720316  0.54199364  0.51423085     0.01600
H1927       H  0.12158191  0.58091957  0.43545928     0.14600
H1928       H  0.08643034  0.51167919  0.53745604     0.14600
C1929       C  0.14898841  0.53797904  0.54436249     0.36200
C1930       C  0.05628044  0.55998400  0.43197982     0.36100
N1931       N  0.16622211  0.53487619  0.56869270    -0.44100
N1932       N  0.03731599  0.56669180  0.40975813    -0.44100
C1933       C  0.23273438  0.68826255  0.61177013    -0.00500
C1934       C  0.21523016  0.67247826  0.63984337    -0.12400
C1935       C  0.21813826  0.68525729  0.67409199     0.01700
C1936       C  0.23819116  0.71519416  0.68136545    -0.00600
C1937       C  0.25360229  0.73248927  0.65322640    -0.12300
C1938       C  0.25111375  0.71954900  0.61897876     0.01600
H1939       H  0.20065234  0.64870589  0.63546355     0.14600
H1940       H  0.26844581  0.75599978  0.65819229     0.14600
C1941       C  0.26864236  0.73858115  0.59209734     0.36200
C1942       C  0.20128571  0.66631071  0.70144217     0.36100
N1943       N  0.28269486  0.75403792  0.57064412    -0.44100
N1944       N  0.18773220  0.65088055  0.72322877    -0.44100
C1945       C  0.31459060  0.76265906  0.28342657    -0.00500
C1946       C  0.31884146  0.78515046  0.31196452    -0.12400
C1947       C  0.35153603  0.78965452  0.32834534     0.01700
C1948       C  0.38117132  0.77096198  0.31675977    -0.00600
C1949       C  0.37666244  0.74904817  0.28778205    -0.12300
C1950       C  0.34427074  0.74480555  0.27140153     0.01600
H1951       H  0.29658090  0.79939481  0.32147455     0.14600
H1952       H  0.39855729  0.73434047  0.27805686     0.14600
C1953       C  0.34223336  0.72087376  0.24268666     0.36200
C1954       C  0.35407861  0.81534485  0.35547034     0.36100
N1955       N  0.34139191  0.70119074  0.21999874    -0.44100
N1956       N  0.35575094  0.83671915  0.37656700    -0.44100
C1957       C  0.28313124  0.81391727  0.23276780    -0.00500
C1958       C  0.30966974  0.82039710  0.20882288    -0.12400
C1959       C  0.32426487  0.85410056  0.20492407     0.01700
C1960       C  0.31166591  0.88297909  0.22452321    -0.00600
C1961       C  0.28388307  0.87643520  0.24715817    -0.12300
C1962       C  0.27052114  0.84258298  0.25209647     0.01600
H1963       H  0.32026328  0.79872537  0.19428882     0.14600
H1964       H  0.27416508  0.89741542  0.26327467     0.14600
C1965       C  0.24586939  0.83760162  0.27955486     0.36200
C1966       C  0.35448690  0.85708339  0.18338366     0.36100
N1967       N  0.22702029  0.83401199  0.30245550    -0.44100
N1968       N  0.37937504  0.85876035  0.16691190    -0.44100
C1969       C  0.17853848  0.61513350  0.26816444    -0.00500
C1970       C  0.20474639  0.62053116  0.24345267    -0.12400
C1971       C  0.22188013  0.65273433  0.24016339     0.01700
C1972       C  0.21318964  0.68127098  0.26168516    -0.00600
C1973       C  0.18740909  0.67615135  0.28679971    -0.12300
C1974       C  0.17011701  0.64368621  0.29014197     0.01600
H1975       H  0.21153788  0.59960757  0.22582832     0.14600
H1976       H  0.18036449  0.69775748  0.30348726     0.14600
C1977       C  0.14378808  0.64062984  0.31631054     0.36200
C1978       C  0.24770146  0.65615561  0.21344043     0.36100
N1979       N  0.12263914  0.63832772  0.33731483    -0.44100
N1980       N  0.26815778  0.65878616  0.19180962    -0.44100
C1981       C  0.26537830  0.70980446  0.31217498    -0.00500
C1982       C  0.25388251  0.72751461  0.34190179    -0.12400
C1983       C  0.25574725  0.71249909  0.37524767     0.01700
C1984       C  0.26910840  0.67823101  0.38013365    -0.00600
C1985       C  0.28186061  0.66104569  0.35039028    -0.12300
C1986       C  0.28036245  0.67641407  0.31703974     0.01600
H1987       H  0.24268631  0.75328723  0.33894898     0.14600
H1988       H  0.29271203  0.63511401  0.35300238     0.14600
C1989       C  0.29504174  0.65737345  0.28848606     0.36200
C1990       C  0.24328858  0.73317569  0.40384248     0.36100
N1991       N  0.30735324  0.64159074  0.26614928    -0.44100
N1992       N  0.23330996  0.74988084  0.42669731    -0.44100
C1993       C  0.89468485  0.72302296  0.06504370    -0.00500
C1994       C  0.89641892  0.72129944  0.02886102    -0.12400
C1995       C  0.86723869  0.71117399  0.01001608     0.01700
C1996       C  0.83627727  0.70434198  0.02767992    -0.00600
C1997       C  0.83308871  0.71289917  0.06221237    -0.12300
C1998       C  0.86221409  0.71953895  0.08167938     0.01600
H1999       H  0.92082276  0.72539896  0.01568021     0.14600
H2000       H  0.80855693  0.70962462  0.07491655     0.14600
C2001       C  0.85764906  0.71780482  0.11856982     0.36200
C2002       C  0.86967273  0.70683958  0.97308515     0.36100
N2003       N  0.85294785  0.71430123  0.14781838    -0.44100
N2004       N  0.87143878  0.70421760  0.94334738    -0.44100
C2005       C  0.02048711  0.65546328  0.20635086    -0.00500
C2006       C  0.00555167  0.62304135  0.19917479    -0.12400
C2007       C  0.01843385  0.59326420  0.21473220     0.01700
C2008       C  0.04731360  0.59654484  0.23640313    -0.00600
C2009       C  0.05820702  0.62941237  0.24809981    -0.12300
C2010       C  0.04418425  0.65933257  0.23356877     0.01600
H2011       H  0.98605368  0.62076085  0.17920259     0.14600
H2012       H  0.07966760  0.63159230  0.26614791     0.14600
C2013       C  0.05608626  0.69304230  0.24519882     0.36200
C2014       C  0.00390625  0.55986193  0.20551672     0.36100
N2015       N  0.06525120  0.71988965  0.25543412    -0.44100
N2016       N  0.99145313  0.53337729  0.19833066    -0.44100
C2017       C  0.97572119  0.62972206  0.07559965    -0.00500
C2018       C  0.98976421  0.62759188  0.04196493    -0.12400
C2019       C  0.99223638  0.59578593  0.02377530     0.01700
C2020       C  0.98073406  0.56428530  0.03873302    -0.00600
C2021       C  0.96520732  0.56620759  0.07161157    -0.12300
C2022       C  0.96225958  0.59831377  0.08981109     0.01600
H2023       H  0.99990094  0.65090676  0.02984905     0.14600
H2024       H  0.95567286  0.54242437  0.08332108     0.14600
C2025       C  0.94482257  0.59793045  0.12269674     0.36200
C2026       C  0.00801968  0.59601359  0.98999362     0.36100
N2027       N  0.93024673  0.59705152  0.14878028    -0.44100
N2028       N  0.02057704  0.59624328  0.96287014    -0.44100
C2029       C  0.82049981  0.76182076  0.21691153    -0.00500
C2030       C  0.82617872  0.78865646  0.19281314    -0.12400
C2031       C  0.85905634  0.79371295  0.17746980     0.01700
C2032       C  0.88754684  0.77217122  0.18665778    -0.00600
C2033       C  0.88200264  0.74663912  0.21225752    -0.12300
C2034       C  0.84897186  0.74077337  0.22647580     0.01600
H2035       H  0.80475365  0.80544636  0.18565946     0.14600
H2036       H  0.90303631  0.72942069  0.21957163     0.14600
C2037       C  0.84468240  0.71224327  0.25038216     0.36200
C2038       C  0.86280500  0.82123442  0.15239482     0.36100
N2039       N  0.84115022  0.68935527  0.26949548    -0.44100
N2040       N  0.86578140  0.84335518  0.13231773    -0.44100
C2041       C  0.11398211  0.72861031  0.18595435    -0.00500
C2042       C  0.12277718  0.75533794  0.20927448    -0.12400
C2043       C  0.15580206  0.75715179  0.22446951     0.01700
C2044       C  0.18231959  0.73385179  0.21430556    -0.00600
C2045       C  0.17314508  0.70610229  0.19221439    -0.12300
C2046       C  0.13893721  0.70226113  0.17977369     0.01600
H2047       H  0.10381186  0.77517501  0.21563898     0.14600
H2048       H  0.19242337  0.68709644  0.18489527     0.14600
C2049       C  0.12959053  0.67007506  0.16268321     0.36200
C2050       C  0.16160041  0.78341647  0.25056378     0.36100
N2051       N  0.12212507  0.64408653  0.14931551    -0.44100
N2052       N  0.16531251  0.80463186  0.27153214    -0.44100
C2053       C  0.14797593  0.79699328  0.01572717    -0.00500
C2054       C  0.15631041  0.77014876  0.03833057    -0.12400
C2055       C  0.13015208  0.75352168  0.05633394     0.01700
C2056       C  0.09559319  0.76412735  0.05137144    -0.00600
C2057       C  0.08700060  0.78714591  0.02496118    -0.12300
C2058       C  0.11318352  0.80371261  0.00684533     0.01600
H2059       H  0.18321066  0.76448411  0.04431690     0.14600
H2060       H  0.06017054  0.79432364  0.02050356     0.14600
C2061       C  0.10349065  0.82784027  0.98006903     0.36200
C2062       C  0.13988942  0.72686094  0.08050799     0.36100
N2063       N  0.09437641  0.84609174  0.95812780    -0.44100
N2064       N  0.14931964  0.70510591  0.09884081    -0.44100
C2065       C  0.34679062  0.80289971  0.97729703    -0.00500
C2066       C  0.33858872  0.77935277  0.95125642    -0.12400
C2067       C  0.36481851  0.76338683  0.93284132     0.01700
C2068       C  0.39961621  0.77037925  0.94154769    -0.00600
C2069       C  0.40759507  0.79018399  0.97071853    -0.12300
C2070       C  0.38123484  0.80688341  0.98861136     0.01600
H2071       H  0.31183308  0.77559678  0.94346878     0.14600
H2072       H  0.43439729  0.79470898  0.97786408     0.14600
C2073       C  0.39047212  0.82808088  0.01790899     0.36200
C2074       C  0.35461785  0.74112791  0.90472456     0.36100
N2075       N  0.39933775  0.84398137  0.04173490    -0.44100
N2076       N  0.34387692  0.72336254  0.88309563    -0.44100
C2077       C  0.26343292  0.94419231  0.09596726    -0.00500
C2078       C  0.28909342  0.96809424  0.08784982    -0.12400
C2079       C  0.30762472  0.98392210  0.11415160     0.01700
C2080       C  0.29981418  0.97578322  0.14875297    -0.00600
C2081       C  0.27079758  0.95583546  0.15674382    -0.12300
C2082       C  0.25237680  0.93984304  0.13029702     0.01600
H2083       H  0.29665104  0.97206140  0.06114129     0.14600
H2084       H  0.26410244  0.95076747  0.18350388     0.14600
C2085       C  0.22282772  0.91891885  0.13917924     0.36200
C2086       C  0.33462828  0.00762841  0.10437918     0.36100
N2087       N  0.19868526  0.90331316  0.14751709    -0.44100
N2088       N  0.35525335  0.02687438  0.09438381    -0.44100
C2089       C  0.22898170  0.93745632  0.89308420    -0.00500
C2090       C  0.22483979  0.97361543  0.89662730    -0.12400
C2091       C  0.21384423  0.99307430  0.86823162     0.01700
C2092       C  0.21022318  0.97635207  0.83603535    -0.00600
C2093       C  0.22175553  0.94259145  0.83130479    -0.12300
C2094       C  0.22745888  0.92192723  0.85978721     0.01600
H2095       H  0.22640687  0.98577154  0.92193323     0.14600
H2096       H  0.21970907  0.93061499  0.80606471     0.14600
C2097       C  0.22446965  0.88491283  0.85389919     0.36200
C2098       C  0.20313887  0.02882600  0.87316234     0.36100
N2099       N  0.21945128  0.85566304  0.84861634    -0.44100
N2100       N  0.19454673  0.05747836  0.87708423    -0.44100
C2101       C  0.27468096  0.81255555  0.88327243    -0.00500
C2102       C  0.25805344  0.78020044  0.87785862    -0.12400
C2103       C  0.25525899  0.76499132  0.84458210     0.01700
C2104       C  0.26834373  0.78224342  0.81504259    -0.00600
C2105       C  0.28671040  0.81344554  0.82045479    -0.12300
C2106       C  0.29080032  0.82807681  0.85391681     0.01600
H2107       H  0.24608635  0.76709855  0.89955764     0.14600
H2108       H  0.29736814  0.82695019  0.79836338     0.14600
C2109       C  0.30998636  0.86026796  0.85665522     0.36200
C2110       C  0.23810788  0.73170819  0.84122625     0.36100
N2111       N  0.32529528  0.88614990  0.85864221    -0.44100
N2112       N  0.22460579  0.70489412  0.83848286    -0.44100
C2113       C  0.22498323  0.81125650  0.11217719    -0.00500
C2114       C  0.25215630  0.78802075  0.11992725    -0.12400
C2115       C  0.25615109  0.77301117  0.15303002     0.01700
C2116       C  0.23398208  0.78219395  0.18074633    -0.00600
C2117       C  0.20593179  0.80448373  0.17271247    -0.12300
C2118       C  0.20050874  0.81754512  0.13873142     0.01600
H2119       H  0.27081686  0.78160263  0.10001373     0.14600
H2120       H  0.18784400  0.81157542  0.19275049     0.14600
C2121       C  0.16834697  0.83507649  0.13108069     0.36200
C2122       C  0.28298507  0.74731504  0.15737522     0.36100
N2123       N  0.14239877  0.84876411  0.12471006    -0.44100
N2124       N  0.30449199  0.72650538  0.15988854    -0.44100
C2125       C  0.35916151  0.93456077  0.02111295    -0.00500
C2126       C  0.36763873  0.95933328  0.99555398    -0.12400
C2127       C  0.40115047  0.97436512  0.99345865     0.01700
C2128       C  0.42834163  0.96339670  0.01566453    -0.00600
C2129       C  0.41951029  0.93931268  0.04168535    -0.12300
C2130       C  0.38525348  0.92672308  0.04565119     0.01600
H2131       H  0.34806783  0.96701698  0.97693178     0.14600
H2132       H  0.43911711  0.93026617  0.05933685     0.14600
C2133       C  0.37676999  0.90773868  0.07653816     0.36200
C2134       C  0.40664850  0.00218991  0.96907437     0.36100
N2135       N  0.36932899  0.89278381  0.10133205    -0.44100
N2136       N  0.41081585  0.02498167  0.94998647    -0.44100
C2137       C  0.02375431  0.84821514  0.70042690    -0.00500
C2138       C  0.04409292  0.84229366  0.72969063    -0.12400
C2139       C  0.05636210  0.87083140  0.74825827     0.01700
C2140       C  0.05103830  0.90441566  0.73485981    -0.00600
C2141       C  0.02605962  0.91023070  0.70970918    -0.12300
C2142       C  0.01076269  0.88182712  0.69372607     0.01600
H2143       H  0.05121062  0.81599557  0.73714982     0.14600
H2144       H  0.01970638  0.93656189  0.70163446     0.14600
C2145       C  0.97935964  0.88743511  0.67462816     0.36200
C2146       C  0.07231047  0.86581440  0.78159222     0.36100
N2147       N  0.95271039  0.89285916  0.66213764    -0.44100
N2148       N  0.08311037  0.86208057  0.80926468    -0.44100
C2149       C  0.98151340  0.64488623  0.68895062    -0.00500
C2150       C  0.98074192  0.64725300  0.72514545    -0.12400
C2151       C  0.97079144  0.61820374  0.74442428     0.01700
C2152       C  0.96379649  0.58668366  0.72714748    -0.00600
C2153       C  0.97275626  0.58268965  0.69278246    -0.12300
C2154       C  0.97816929  0.61186510  0.67279138     0.01600
H2155       H  0.98465047  0.67217041  0.73790637     0.14600
H2156       H  0.96929083  0.55773237  0.68034965     0.14600
C2157       C  0.97421752  0.60713637  0.63604037     0.36200
C2158       C  0.96552002  0.62163870  0.78118142     0.36100
N2159       N  0.96872840  0.60296853  0.60695006    -0.44100
N2160       N  0.96179565  0.62424993  0.81074460    -0.44100
C2161       C  0.15279654  0.69486382  0.51997517    -0.00500
C2162       C  0.15968312  0.72340580  0.54128827    -0.12400
C2163       C  0.13235017  0.74068597  0.55711638     0.01700
C2164       C  0.09847111  0.72790944  0.55263615    -0.00600
C2165       C  0.09131176  0.70273558  0.52765702    -0.12300
C2166       C  0.11848544  0.68661721  0.51052834     0.01600
H2167       H  0.18619670  0.73077532  0.54713343     0.14600
H2168       H  0.06486369  0.69434551  0.52300965     0.14600
C2169       C  0.11044897  0.66219248  0.48333120     0.36200
C2170       C  0.13952931  0.77135622  0.57749529     0.36100
N2171       N  0.10302206  0.64384149  0.46074456    -0.44100
N2172       N  0.14563911  0.79669463  0.59258766    -0.44100
C2173       C  0.89592842  0.77645172  0.56400189    -0.00500
C2174       C  0.89508347  0.77638360  0.52774313    -0.12400
C2175       C  0.86531317  0.78792716  0.51060872     0.01700
C2176       C  0.83594450  0.79684380  0.53017245    -0.00600
C2177       C  0.83498466  0.79039738  0.56523438    -0.12300
C2178       C  0.86510598  0.78352850  0.58282202     0.01600
H2179       H  0.91830965  0.77055973  0.51314128     0.14600
H2180       H  0.81196439  0.79643736  0.57967220     0.14600
C2181       C  0.86369690  0.78988013  0.61966256     0.36200
C2182       C  0.86632936  0.79361330  0.47374921     0.36100
N2183       N  0.86232127  0.79709130  0.64868024    -0.44100
N2184       N  0.86697718  0.79822536  0.44420302    -0.44100
C2185       C  0.18632403  0.76241106  0.71420143    -0.00500
C2186       C  0.15983607  0.73962462  0.72470575    -0.12400
C2187       C  0.12619646  0.74100885  0.71032203     0.01700
C2188       C  0.11757204  0.76638536  0.68496699    -0.00600
C2189       C  0.14379812  0.79027743  0.67573158    -0.12300
C2190       C  0.17779504  0.78812441  0.68947314     0.01600
H2191       H  0.16573064  0.71998078  0.74396138     0.14600
H2192       H  0.13789463  0.81055353  0.65722460     0.14600
C2193       C  0.20372657  0.81189287  0.67686203     0.36200
C2194       C  0.10170046  0.71480412  0.72116731     0.36100
N2195       N  0.22445173  0.83098520  0.66654655    -0.44100
N2196       N  0.08217873  0.69366698  0.72981822    -0.44100
C2197       C  0.02216159  0.63455772  0.56310101    -0.00500
C2198       C  0.00222736  0.62774443  0.53315010    -0.12400
C2199       C  0.00005779  0.59384440  0.51835354     0.01700
C2200       C  0.01658121  0.56484790  0.53403668    -0.00600
C2201       C  0.03789240  0.57174771  0.56278044    -0.12300
C2202       C  0.04173449  0.60593236  0.57647281     0.01600
H2203       H  0.98749691  0.64878120  0.52159740     0.14600
H2204       H  0.05170934  0.55030204  0.57470089     0.14600
C2205       C  0.06602230  0.61054479  0.60452609     0.36200
C2206       C  0.98039008  0.58926280  0.48690190     0.36100
N2207       N  0.08579922  0.61417641  0.62678226    -0.44100
N2208       N  0.96473734  0.58538826  0.46162485    -0.44100
C2209       C  0.88678862  0.73248323  0.68556226    -0.00500
C2210       C  0.88429506  0.75045713  0.71736640    -0.12400
C2211       C  0.85221547  0.75561641  0.73419674     0.01700
C2212       C  0.82094067  0.74309644  0.71949817    -0.00600
C2213       C  0.82326173  0.72414846  0.68843267    -0.12300
C2214       C  0.85543427  0.71847329  0.67173784     0.01600
H2215       H  0.90745715  0.76157093  0.72883508     0.14600
H2216       H  0.79973756  0.71372137  0.67706705     0.14600
C2217       C  0.85505941  0.69867661  0.63999505     0.36200
C2218       C  0.85208736  0.77472455  0.76637116     0.36100
N2219       N  0.85456138  0.68274015  0.61455257    -0.44100
N2220       N  0.85237415  0.79016831  0.79210442    -0.44100
C2221       C  0.93364216  0.96454633  0.48768898    -0.00500
C2222       C  0.90602529  0.97638883  0.50818395    -0.12400
C2223       C  0.87344401  0.95959530  0.50838304     0.01700
C2224       C  0.86694443  0.92986747  0.48716819    -0.00600
C2225       C  0.89465217  0.91821066  0.46623782    -0.12300
C2226       C  0.92746832  0.93513725  0.46637314     0.01600
H2227       H  0.91030108  0.99858978  0.52509000     0.14600
H2228       H  0.89075850  0.89571518  0.44965539     0.14600
C2229       C  0.95458727  0.92179046  0.44452840     0.36200
C2230       C  0.84787704  0.97270580  0.53228282     0.36100
N2231       N  0.97637460  0.91127777  0.42687774    -0.44100
N2232       N  0.82756437  0.98313460  0.55167314    -0.44100
C2233       C  0.13369939  0.06936113  0.52251285    -0.00500
C2234       C  0.10381149  0.08548717  0.53633255    -0.12400
C2235       C  0.07035900  0.07016098  0.53368106     0.01700
C2236       C  0.06569329  0.03742436  0.51733633    -0.00600
C2237       C  0.09558698  0.02033883  0.50536738    -0.12300
C2238       C  0.12885816  0.03574476  0.50741760     0.01600
H2239       H  0.10637588  0.11058721  0.54873950     0.14600
H2240       H  0.09273446  0.99506169  0.49304410     0.14600
C2241       C  0.15732284  0.01632467  0.49285689     0.36200
C2242       C  0.04113591  0.08856988  0.54794306     0.36100
N2243       N  0.18001617  0.00067067  0.48101070    -0.44100
N2244       N  0.01767281  0.10330558  0.55943438    -0.44100
C2245       C  0.06357874  0.98035407  0.63537929    -0.00500
C2246       C  0.07367031  0.95776916  0.60835213    -0.12400
C2247       C  0.06053917  0.96127673  0.57438584     0.01700
C2248       C  0.03501837  0.98651849  0.56692910    -0.00600
C2249       C  0.02337998  0.00779797  0.59415667    -0.12300
C2250       C  0.03740238  0.00527790  0.62778586     0.01600
H2251       H  0.09266070  0.93770477  0.61358639     0.14600
H2252       H  0.00355594  0.02712599  0.58888686     0.14600
C2253       C  0.02502799  0.02963643  0.65343068     0.36200
C2254       C  0.07492927  0.93983648  0.54733615     0.36100
N2255       N  0.01497682  0.04930215  0.67381245    -0.44100
N2256       N  0.08677221  0.92282632  0.52562728    -0.44100
C2257       C  0.02410681  0.13435898  0.43551699    -0.00500
C2258       C  0.04765386  0.10724984  0.42813790    -0.12400
C2259       C  0.04333314  0.07324450  0.44182574     0.01700
C2260       C  0.01595588  0.06598676  0.46495169    -0.00600
C2261       C  0.99393338  0.09354948  0.47414195    -0.12300
C2262       C  0.99770879  0.12716045  0.46009936     0.01600
H2263       H  0.06900648  0.11236229  0.41076483     0.14600
H2264       H  0.97339462  0.08869911  0.49258592     0.14600
C2265       C  0.97343405  0.15342065  0.47141348     0.36200
C2266       C  0.06627088  0.04590627  0.43043549     0.36100
N2267       N  0.95405025  0.17436888  0.48086433    -0.44100
N2268       N  0.08457789  0.02397124  0.42104666    -0.44100
C2269       C  0.98480258  0.93535646  0.53708303    -0.00500
C2270       C  0.00243248  0.90685733  0.52259500    -0.12400
C2271       C  0.00169494  0.87347133  0.53783649     0.01700
C2272       C  0.98170570  0.86710787  0.56804908    -0.00600
C2273       C  0.96116510  0.89501487  0.58016183    -0.12300
C2274       C  0.96347604  0.92896879  0.56596336     0.01600
H2275       H  0.01809141  0.91107968  0.49975042     0.14600
H2276       H  0.94320988  0.89037673  0.60086939     0.14600
C2277       C  0.94440624  0.95695088  0.58201878     0.36200
C2278       C  0.02262664  0.84671289  0.52197328     0.36100
N2279       N  0.92922061  0.97940589  0.59505789    -0.44100
N2280       N  0.03948872  0.82542720  0.50906405    -0.44100
C2281       C  0.95404534  0.08992730  0.26668959    -0.00500
C2282       C  0.97693845  0.08227486  0.29331483    -0.12400
C2283       C  0.99124376  0.10933992  0.31236924     0.01700
C2284       C  0.98103158  0.14394212  0.30541193    -0.00600
C2285       C  0.96254626  0.15148424  0.27523704    -0.12300
C2286       C  0.94973591  0.12430520  0.25512448     0.01600
H2287       H  0.98165316  0.05540257  0.30073430     0.14600
H2288       H  0.95664525  0.17827153  0.26846169     0.14600
C2289       C  0.93140877  0.13201947  0.22350747     0.36200
C2290       C  0.01750608  0.10068156  0.33718599     0.36100
N2291       N  0.91772562  0.13832496  0.19762643    -0.44100
N2292       N  0.03972574  0.09191007  0.35517775    -0.44100
C2293       C  0.79385754  0.01792575  0.16053436    -0.00500
C2294       C  0.78500628  0.05279724  0.16331801    -0.12400
C2295       C  0.78127988  0.07222221  0.13368171     0.01700
C2296       C  0.77689066  0.05520291  0.10134879    -0.00600
C2297       C  0.77774424  0.01862806  0.09990533    -0.12300
C2298       C  0.78803826  0.99980870  0.12922864     0.01600
H2299       H  0.78907145  0.06622778  0.18767338     0.14600
H2300       H  0.77410241  0.00531812  0.07539519     0.14600
C2301       C  0.79680493  0.96335397  0.12556710     0.36200
C2302       C  0.78866560  0.10892111  0.13719658     0.36100
N2303       N  0.80403061  0.93421604  0.12244156    -0.44100
N2304       N  0.79675973  0.13784016  0.13968234    -0.44100
C2305       C  0.81378795  0.97367980  0.35232449    -0.00500
C2306       C  0.77741173  0.97421609  0.35216124    -0.12400
C2307       C  0.75926483  0.96236104  0.38117097     0.01700
C2308       C  0.77799447  0.95179596  0.41058865    -0.00600
C2309       C  0.81332231  0.95686555  0.41237080    -0.12300
C2310       C  0.83171628  0.96558098  0.38340373     0.01600
H2311       H  0.76343967  0.98130543  0.32886201     0.14600
H2312       H  0.82724712  0.94973913  0.43534975     0.14600
C2313       C  0.86881455  0.96141158  0.38627483     0.36200
C2314       C  0.72204345  0.95933227  0.37971229     0.36100
N2315       N  0.89818440  0.95612974  0.38887001    -0.44100
N2316       N  0.69216254  0.95724848  0.37876234    -0.44100
C2317       C  0.96635644  0.92058483  0.21796740    -0.00500
C2318       C  0.96883661  0.92143460  0.18225620    -0.12400
C2319       C  0.97456835  0.89083665  0.16441663     0.01700
C2320       C  0.98368769  0.86014535  0.18291006    -0.00600
C2321       C  0.98838948  0.86178369  0.21884941    -0.12300
C2322       C  0.97868587  0.89178945  0.23676678     0.01600
H2323       H  0.95929176  0.94405295  0.16835334     0.14600
H2324       H  0.99599894  0.83871025  0.23313886     0.14600
C2325       C  0.97634951  0.89062484  0.27404055     0.36200
C2326       C  0.96527167  0.89131356  0.12823480     0.36100
N2327       N  0.97422031  0.88965594  0.30386426    -0.44100
N2328       N  0.95620831  0.89173656  0.09971973    -0.44100
C2329       C  0.83015581  0.87844143  0.26869445    -0.00500
C2330       C  0.84618303  0.84841485  0.28232365    -0.12400
C2331       C  0.82902899  0.81572455  0.28290481     0.01700
C2332       C  0.79513798  0.81214848  0.26910086    -0.00600
C2333       C  0.77861065  0.84229702  0.25709537    -0.12300
C2334       C  0.79523623  0.87491514  0.25699078     0.01600
H2335       H  0.87247613  0.85026133  0.29204751     0.14600
H2336       H  0.75253943  0.84013767  0.24675293     0.14600
C2337       C  0.77533776  0.90402286  0.24405059     0.36200
C2338       C  0.84682048  0.78663613  0.29832472     0.36100
N2339       N  0.75918549  0.92716758  0.23362133    -0.44100
N2340       N  0.86175243  0.76393704  0.31120200    -0.44100
C2341       C  0.82200698  0.11665190  0.23356064    -0.00500
C2342       C  0.83093160  0.14331908  0.21034175    -0.12400
C2343       C  0.81552106  0.17663693  0.21200216     0.01700
C2344       C  0.79023930  0.18412261  0.23747304    -0.00600
C2345       C  0.78187237  0.15750070  0.26101716    -0.12300
C2346       C  0.79759051  0.12442806  0.25960570     0.01600
H2347       H  0.84991325  0.13806447  0.19043477     0.14600
H2348       H  0.76330676  0.16292475  0.28129863     0.14600
C2349       C  0.78953969  0.09975100  0.28655806     0.36200
C2350       C  0.82670415  0.20226969  0.18729454     0.36100
N2351       N  0.78330482  0.07996643  0.30821607    -0.44100
N2352       N  0.83639514  0.22194902  0.16686086    -0.44100
C2353       C  0.93467020  0.02134832  0.36759847    -0.00500
C2354       C  0.91812288  0.03644560  0.39663408    -0.12400
C2355       C  0.93219519  0.03382992  0.43044293     0.01700
C2356       C  0.96384856  0.01620767  0.43617635    -0.00600
C2357       C  0.98120847  0.00274219  0.40718122    -0.12300
C2358       C  0.96714395  0.00488951  0.37352783     0.01600
H2359       H  0.89332970  0.04924456  0.39320140     0.14600
H2360       H  0.00567649  0.98939755  0.41103859     0.14600
C2361       C  0.98614886  0.98822305  0.34600056     0.36200
C2362       C  0.91342410  0.04913663  0.45884072     0.36100
N2363       N  0.00138003  0.97464747  0.32403932    -0.44100
N2364       N  0.89818925  0.06150569  0.48148308    -0.44100
C2365       C  0.09746819  0.26872473  0.94905519    -0.00500
C2366       C  0.08995812  0.29248212  0.97526824    -0.12400
C2367       C  0.11699017  0.30870680  0.99287478     0.01700
C2368       C  0.15129037  0.30305706  0.98191101    -0.00600
C2369       C  0.15876698  0.27589097  0.95923572    -0.12300
C2370       C  0.13179450  0.25766832  0.94372225     0.01600
H2371       H  0.06330625  0.29927597  0.98099590     0.14600
H2372       H  0.18540296  0.26995556  0.95258217     0.14600
C2373       C  0.13987047  0.22698781  0.92390603     0.36200
C2374       C  0.10910731  0.32814565  0.02368522     0.36100
N2375       N  0.14719725  0.20137815  0.90993310    -0.44100
N2376       N  0.10178517  0.34124363  0.04958843    -0.44100
C2377       C  0.02532924  0.16035313  0.79309631    -0.00500
C2378       C  0.05866414  0.16563781  0.78135158    -0.12400
C2379       C  0.07889930  0.13729639  0.77326101     0.01700
C2380       C  0.06341474  0.10393655  0.77014683    -0.00600
C2381       C  0.02769487  0.10008926  0.77518445    -0.12300
C2382       C  0.00871224  0.12805575  0.78832705     0.01600
H2383       H  0.07059979  0.19092996  0.78413928     0.14600
H2384       H  0.01562946  0.07467070  0.77252833     0.14600
C2385       C  0.97366349  0.12237867  0.79990938     0.36200
C2386       C  0.11575066  0.14278759  0.77517957     0.36100
N2387       N  0.94560647  0.11784305  0.80930899    -0.44100
N2388       N  0.14508302  0.14692923  0.77940320    -0.44100
C2389       C  0.97763727  0.34929875  0.80533233    -0.00500
C2390       C  0.95156944  0.33983679  0.78254217    -0.12400
C2391       C  0.93073982  0.36525599  0.76837293     0.01700
C2392       C  0.93794256  0.40057434  0.77525806    -0.00600
C2393       C  0.96698278  0.41010499  0.79458072    -0.12300
C2394       C  0.98657424  0.38446840  0.81051197     0.01600
H2395       H  0.94515139  0.31252551  0.77874602     0.14600
H2396       H  0.97272175  0.43741324  0.79933621     0.14600
C2397       C  0.01433843  0.39498566  0.83317883     0.36200
C2398       C  0.90125552  0.35337499  0.74917110     0.36100
N2399       N  0.03663139  0.40441156  0.85087031    -0.44100
N2400       N  0.87844136  0.34056505  0.73467191    -0.44100
C2401       C  0.90010109  0.22782109  0.94197902    -0.00500
C2402       C  0.86704537  0.23893827  0.93152872    -0.12400
C2403       C  0.83785092  0.22632036  0.94832304     0.01700
C2404       C  0.84232233  0.20108980  0.97389919    -0.00600
C2405       C  0.87515390  0.19392274  0.98746693    -0.12300
C2406       C  0.90436979  0.20791238  0.97203803     0.01600
H2407       H  0.86412181  0.25602716  0.90941035     0.14600
H2408       H  0.87801579  0.17530535  0.00827292     0.14600
C2409       C  0.93809633  0.19911483  0.98562193     0.36200
C2410       C  0.80374777  0.23815426  0.93854496     0.36100
N2411       N  0.96498505  0.19231892  0.99701576    -0.44100
N2412       N  0.77620752  0.24782494  0.93161171    -0.44100
C2413       C  0.11828810  0.23241809  0.81566063    -0.00500
C2414       C  0.14565679  0.21095012  0.82727527    -0.12400
C2415       C  0.17917226  0.21214701  0.81237168     0.01700
C2416       C  0.18624015  0.23479606  0.78454245    -0.00600
C2417       C  0.15876567  0.25523202  0.77192580    -0.12300
C2418       C  0.12528654  0.25393251  0.78657030     0.01600
H2419       H  0.14062535  0.19227412  0.84745096     0.14600
H2420       H  0.16359293  0.27261060  0.75038750     0.14600
C2421       C  0.09868541  0.27492596  0.77064421     0.36200
C2422       C  0.20567316  0.18923755  0.82554926     0.36100
N2423       N  0.07732593  0.29149558  0.75756014    -0.44100
N2424       N  0.22678728  0.17059428  0.83599869    -0.44100
C2425       C  0.01973406  0.36437771  0.93627041    -0.00500
C2426       C  0.99176535  0.37248080  0.95806678    -0.12400
C2427       C  0.98804890  0.40578602  0.97320408     0.01700
C2428       C  0.01177775  0.43299275  0.96592411    -0.00600
C2429       C  0.04078630  0.42447684  0.94553001    -0.12300
C2430       C  0.04532892  0.39048832  0.93168029     0.01600
H2431       H  0.97220698  0.35282468  0.96296636     0.14600
H2432       H  0.06010137  0.44429533  0.94052098     0.14600
C2433       C  0.07730663  0.38246604  0.91428741     0.36200
C2434       C  0.96008579  0.41081081  0.99727987     0.36100
N2435       N  0.10303510  0.37571608  0.90059269    -0.44100
N2436       N  0.93777794  0.41397513  0.01690607    -0.44100
C2437       C  0.88385481  0.27143049  0.81367776    -0.00500
C2438       C  0.87450383  0.24218919  0.79332675    -0.12400
C2439       C  0.84156588  0.23912022  0.77713961     0.01700
C2440       C  0.81606689  0.26554493  0.78066678    -0.00600
C2441       C  0.82685159  0.29648556  0.79788590    -0.12300
C2442       C  0.85964180  0.29920553  0.81484876     0.01600
H2443       H  0.89271400  0.22081315  0.79087821     0.14600
H2444       H  0.80851356  0.31743597  0.80130807     0.14600
C2445       C  0.86712426  0.33030831  0.83454503     0.36200
C2446       C  0.83464385  0.20847508  0.75651814     0.36100
N2447       N  0.87298066  0.35521041  0.85048931    -0.44100
N2448       N  0.82917145  0.18407056  0.73970470    -0.44100
C2449       C  0.86950125  0.07037801  0.01180079    -0.00500
C2450       C  0.87144979  0.03841527  0.99373325    -0.12400
C2451       C  0.90307384  0.02070136  0.98897936     0.01700
C2452       C  0.93439152  0.03473692  0.00189467    -0.00600
C2453       C  0.93272425  0.06620212  0.02058837    -0.12300
C2454       C  0.90088717  0.08373613  0.02598155     0.01600
H2455       H  0.84812848  0.02723397  0.98265698     0.14600
H2456       H  0.95639561  0.07695496  0.03134267     0.14600
C2457       C  0.90138374  0.11479764  0.04706758     0.36200
C2458       C  0.90278208  0.98823820  0.97001428     0.36100
N2459       N  0.90211837  0.13946093  0.06436665    -0.44100
N2460       N  0.90247780  0.96227512  0.95469725    -0.44100
C2461       C  0.04072749  0.01183844  0.92825904    -0.00500
C2462       C  0.02463575  0.00376416  0.89676402    -0.12400
C2463       C  0.04155516  0.00791741  0.86492284     0.01700
C2464       C  0.07621984  0.02069412  0.86335767    -0.00600
C2465       C  0.09210813  0.02987229  0.89508328    -0.12300
C2466       C  0.07470655  0.02573034  0.92715696     0.01600
H2467       H  0.99865545  0.99303654  0.89712420     0.14600
H2468       H  0.11841996  0.03969622  0.89498242     0.14600
C2469       C  0.09210532  0.03615435  0.95854144     0.36200
C2470       C  0.02233077  0.99770222  0.83444533     0.36100
N2471       N  0.10606291  0.04458250  0.98372549    -0.44100
N2472       N  0.00684166  0.98922864  0.81017803    -0.44100
C2473       C  0.01873675  0.86179157  0.06028736    -0.00500
C2474       C  0.00106365  0.86510445  0.02846064    -0.12400
C2475       C  0.99687031  0.89782857  0.01186769     0.01700
C2476       C  0.00995058  0.92898054  0.02686937    -0.00600
C2477       C  0.02834350  0.92582619  0.05808593    -0.12300
C2478       C  0.03319067  0.89310879  0.07447946     0.01600
H2479       H  0.98960091  0.84211592  0.01674722     0.14600
H2480       H  0.03889133  0.94919636  0.06992859     0.14600
C2481       C  0.05187819  0.89322500  0.10684963     0.36200
C2482       C  0.97807599  0.89890475  0.97961422     0.36100
N2483       N  0.06663950  0.89357902  0.13293173    -0.44100
N2484       N  0.96288550  0.89970429  0.95380022    -0.44100
C2485       C  0.06323231  0.95686234  0.97876816    -0.00500
C2486       C  0.08761937  0.96298526  0.00507593    -0.12400
C2487       C  0.12109118  0.94858317  0.00398101     0.01700
C2488       C  0.13161325  0.92753189  0.97559117    -0.00600
C2489       C  0.10732337  0.92189619  0.94886734    -0.12300
C2490       C  0.07333818  0.93565331  0.95056412     0.01600
H2491       H  0.08034905  0.97924081  0.02687236     0.14600
H2492       H  0.11460202  0.90585319  0.92694703     0.14600
C2493       C  0.04889758  0.92621074  0.92391188     0.36200
C2494       C  0.14337258  0.95479513  0.03341883     0.36100
N2495       N  0.02935774  0.91827831  0.90256081    -0.44100
N2496       N  0.16102708  0.95979955  0.05714986    -0.44100
C2497       C  0.96181500  0.98688814  0.05435305    -0.00500
C2498       C  0.97385874  0.01221040  0.07779989    -0.12400
C2499       C  0.95811908  0.01760561  0.11022945     0.01700
C2500       C  0.92947835  0.99660819  0.12078275    -0.00600
C2501       C  0.91763763  0.97120486  0.09718477    -0.12300
C2502       C  0.93329783  0.96627448  0.06449078     0.01600
H2503       H  0.99544581  0.02862308  0.07024171     0.14600
H2504       H  0.89579671  0.95500015  0.10423468     0.14600
C2505       C  0.91937431  0.93976525  0.04203369     0.36200
C2506       C  0.97278221  0.04469203  0.13184191     0.36100
N2507       N  0.90773248  0.91803983  0.02475896    -0.44100
N2508       N  0.98513631  0.06647180  0.14860848    -0.44100
C2509       C  0.98303705  0.13042411  0.92345258    -0.00500
C2510       C  0.96232886  0.10281557  0.91072162    -0.12400
C2511       C  0.96422683  0.06873900  0.92480340     0.01700
C2512       C  0.98718042  0.06129614  0.95240472    -0.00600
C2513       C  0.00788472  0.08860748  0.96501173    -0.12300
C2514       C  0.00630337  0.12246778  0.95096957     0.01600
H2515       H  0.94479401  0.10770705  0.88934734     0.14600
H2516       H  0.02590354  0.08326441  0.98591088     0.14600
C2517       C  0.03033494  0.14788289  0.96462039     0.36200
C2518       C  0.94316468  0.04166702  0.90964825     0.36100
N2519       N  0.04979251  0.16803059  0.97564508    -0.44100
N2520       N  0.92638535  0.02009203  0.89701594    -0.44100
loop_ 
_geom_bond_atom_site_label_1 
_geom_bond_atom_site_label_2 
_geom_bond_distance 
_geom_bond_site_symmetry_2 
_ccdc_geom_bond_type 
C1            C2   1.429       .  A
C1            C6   1.432   1_546  A
C1         C2452   1.517   1_556  S
C2            C3   1.434   1_655  A
C2         C2512   1.517       .  S
C3            C4   1.439   1_545  A
C3         C2461   1.518       .  S
C4            C5   1.439   1_556  A
C4         C2485   1.513       .  S
C5            C6   1.438   1_455  A
C5         C2476   1.529       .  S
C6         C2497   1.514       .  S
O7           C15   1.275       .  A
O7          Co27   2.019       .  S
O8           C16   1.269       .  A
O8          Co28   1.998       .  S
O9           C17   1.257       .  A
O9          Co29   1.976       .  S
O10          C18   1.258       .  A
O10         Co30   1.976       .  S
O11          C17   1.278       .  A
O11         Co28   2.092       .  S
O12          C18   1.272       .  A
O12         Co27   2.070       .  S
O13          C16   1.254   1_455  A
O13         Co30   1.923       .  S
O14          C15   1.248   1_655  A
O14         Co29   1.918       .  S
C15        C2377   1.435       .  S
C16        C2389   1.424       .  S
C17        C2437   1.534       .  S
C18        C2413   1.530       .  S
O19          C32   1.256       .  A
O19         Co27   1.944       .  S
O20          C33   1.253       .  A
O20         Co28   1.935       .  S
O21          C34   1.271       .  A
O21         Co29   2.068       .  S
O22          C35   1.270       .  A
O22         Co30   2.050       .  S
O23          C35   1.262       .  A
O23         Co28   1.986   1_455  S
O24          C34   1.256       .  A
O24         Co27   1.971   1_655  S
O25          C32   1.272       .  A
O25         Co30   2.014       .  S
O26          C33   1.271       .  A
O26         Co29   2.009       .  S
Co27         O31   2.111       .  S
Co28         O31   2.118   1_655  S
Co29         O31   2.130   1_655  S
Co30         O31   2.115       .  S
C32        C2365   1.446       .  S
C33        C2401   1.442       .  S
C34        C2509   1.522       .  S
C35        C2425   1.516       .  S
O36          C44   1.268       .  A
O36         Co56   1.997       .  S
O37          C45   1.273       .  A
O37         Co57   1.980       .  S
O38          C46   1.249       .  A
O38         Co58   1.959       .  S
O39          C47   1.272       .  A
O39         Co59   1.993       .  S
O40          C46   1.274       .  A
O40         Co57   2.073       .  S
O41          C47   1.264       .  A
O41         Co56   1.998       .  S
O42          C45   1.270   1_545  A
O42         Co59   1.957       .  S
O43          C44   1.243   1_565  A
O43         Co58   1.931       .  S
C44        C2293   1.446       .  S
C45        C2305   1.462       .  S
C46        C2329   1.519       .  S
C47        C2341   1.498       .  S
O48          C61   1.248       .  A
O48         Co56   1.907       .  S
O49          C62   1.245       .  A
O49         Co57   1.918       .  S
O50          C63   1.295   1_565  A
O50         Co58   2.116       .  S
O51          C64   1.263       .  A
O51         Co59   2.047       .  S
O52          C64   1.258       .  A
O52         Co57   1.991   1_545  S
O53          C63   1.250       .  A
O53         Co56   1.924       .  S
O54          C61   1.278       .  A
O54         Co59   2.021       .  S
O55          C62   1.271       .  A
O55         Co58   1.992       .  S
Co56         O60   1.997   1_545  S
Co57         O60   2.072       .  S
Co58         O60   2.089       .  S
Co59         O60   2.117   1_545  S
C61        C2281   1.429       .  S
C62        C2317   1.433       .  S
C63        C2500   1.521   1_545  S
C64        C2353   1.524       .  S
C65          C66   1.436       .  A
C65          C70   1.433   1_545  A
C65        C2236   1.529       .  S
C66          C67   1.442   1_455  A
C66        C2260   1.515       .  S
C67          C68   1.439   1_545  A
C67        C2356   1.518       .  S
C68          C69   1.432       .  A
C68        C2221   1.526       .  S
C69          C70   1.435   1_655  A
C69        C2269   1.516       .  S
C70        C2248   1.511       .  S
O71          C79   1.273       .  A
O71         Co91   2.024       .  S
O72          C80   1.268       .  A
O72         Co92   1.987       .  S
O73          C81   1.265       .  A
O73         Co93   1.990       .  S
O74          C82   1.262       .  A
O74         Co94   1.981       .  S
O75          C81   1.274       .  A
O75         Co92   2.062       .  S
O76          C82   1.273       .  A
O76         Co91   2.061       .  S
O77          C80   1.259   1_455  A
O77         Co94   1.948       .  S
O78          C79   1.249       .  A
O78         Co93   1.929   1_455  S
C79        C2137   1.442       .  S
C80        C2149   1.457       .  S
C81        C2209   1.528       .  S
C82        C2188   1.522       .  S
O83          C96   1.252       .  A
O83         Co91   1.936       .  S
O84          C97   1.264       .  A
O84         Co92   1.960       .  S
O85          C98   1.276       .  A
O85         Co93   2.081       .  S
O86          C99   1.273       .  A
O86         Co94   2.048       .  S
O87          C99   1.274       .  A
O87         Co92   2.015   1_455  S
O88          C98   1.256   1_455  A
O88         Co91   1.975       .  S
O89          C96   1.271       .  A
O89         Co94   2.013       .  S
O90          C97   1.262       .  A
O90         Co93   1.958       .  S
Co91         O95   2.107       .  S
Co92         O95   2.125   1_655  S
Co93         O95   2.099   1_655  S
Co94         O95   2.102       .  S
C96        C2164   1.440       .  S
C97        C2173   1.459       .  S
C98        C2272   1.526       .  S
C99        C2197   1.536       .  S
O100        C108   1.269       .  A
O100       Co120   2.008       .  S
O101        C109   1.270       .  A
O101       Co121   2.012       .  S
O102        C110   1.267       .  A
O102       Co122   1.994       .  S
O103        C111   1.262       .  A
O103       Co123   1.980       .  S
O104        C110   1.272       .  A
O104       Co121   2.053       .  S
O105        C111   1.275       .  A
O105       Co120   2.071       .  S
O106        C109   1.254   1_554  A
O106       Co123   1.933       .  S
O107        C108   1.255   1_556  A
O107       Co122   1.935       .  S
C108       C2053   1.439       .  S
C109       C2065   1.437       .  S
C110       C2101   1.527       .  S
C111       C2113   1.524       .  S
O112        C125   1.251       .  A
O112       Co120   1.929       .  S
O113        C126   1.260       .  A
O113       Co121   1.952       .  S
O114        C127   1.274       .  A
O114       Co122   2.069       .  S
O115        C128   1.277       .  A
O115       Co123   2.066       .  S
O116        C128   1.263       .  A
O116       Co121   1.982   1_554  S
O117        C127   1.256       .  A
O117       Co120   1.966   1_556  S
O118        C125   1.267       .  A
O118       Co123   2.003       .  S
O119        C126   1.265       .  A
O119       Co122   1.977       .  S
Co120       O124   2.110   1_554  S
Co121       O124   2.121       .  S
Co122       O124   2.120       .  S
Co123       O124   2.112   1_554  S
C125       C2077   1.432       .  S
C126       C2089   1.455       .  S
C127       C2488   1.512       .  S
C128       C2125   1.526       .  S
O129        C137   1.263   1_455  A
O129       Co149   1.954       .  S
O130        C138   1.248   1_655  A
O130       Co150   1.931       .  S
O131        C139   1.272       .  A
O131       Co151   2.057       .  S
O132        C140   1.270       .  A
O132       Co152   2.040       .  S
O133        C139   1.260       .  A
O133       Co150   1.977       .  S
O134        C140   1.263       .  A
O134       Co149   1.980       .  S
O135        C138   1.272       .  A
O135       Co152   2.013       .  S
O136        C137   1.265       .  A
O136       Co151   1.975       .  S
C137       C2320   1.461       .  S
C138       C2005   1.438       .  S
C139       C2032   1.512       .  S
C140       C2041   1.504       .  S
O141        C154   1.271       .  A
O141       Co149   2.011       .  S
O142        C155   1.267       .  A
O142       Co150   1.983       .  S
O143        C156   1.272       .  A
O143       Co151   2.005   1_455  S
O144        C157   1.259       .  A
O144       Co152   1.972   1_655  S
O145        C157   1.277       .  A
O145       Co150   2.086       .  S
O146        C156   1.271       .  A
O146       Co149   2.046       .  S
O147        C154   1.254       .  A
O147       Co152   1.935       .  S
O148        C155   1.262       .  A
O148       Co151   1.946       .  S
Co149       O153   2.107   1_455  S
Co150       O153   2.104       .  S
Co151       O153   2.115       .  S
Co152       O153   2.099   1_455  S
C154       C2056   1.439       .  S
C155       C1993   1.456       .  S
C156       C2473   1.534       .  S
C157       C2017   1.526       .  S
C158        C159   1.435       .  A
C158        C163   1.435       .  A
C158       C1972   1.515       .  S
C159        C160   1.434       .  A
C159       C2044   1.512       .  S
C160        C161   1.437       .  A
C160       C2116   1.535       .  S
C161        C162   1.444       .  A
C161       C1957   1.518       .  S
C162        C163   1.439       .  A
C162       C1945   1.520       .  S
C163       C1981   1.528       .  S
O164        C172   1.256       .  A
O164       Co184   1.940       .  S
O165        C173   1.263       .  A
O165       Co185   1.956       .  S
O166        C174   1.271       .  A
O166       Co186   2.040       .  S
O167        C175   1.277       .  A
O167       Co187   2.077       .  S
O168        C174   1.270       .  A
O168       Co185   2.002       .  S
O169        C175   1.261       .  A
O169       Co184   1.981       .  S
O170        C173   1.268       .  A
O170       Co187   1.985       .  S
O171        C172   1.272       .  A
O171       Co186   2.014       .  S
C172       C2161   1.443       .  S
C173       C1897   1.462       .  S
C174       C1933   1.525       .  S
C175       C1984   1.530       .  S
O176        C189   1.271       .  A
O176       Co184   2.004       .  S
O177        C190   1.269       .  A
O177       Co185   1.991       .  S
O178        C191   1.262       .  A
O178       Co186   1.977       .  S
O179        C192   1.264       .  A
O179       Co187   1.989       .  S
O180        C192   1.273       .  A
O180       Co185   2.053       .  S
O181        C191   1.272       .  A
O181       Co184   2.052       .  S
O182        C189   1.252       .  A
O182       Co187   1.938       .  S
O183        C190   1.261       .  A
O183       Co186   1.953       .  S
Co184       O188   2.104       .  S
Co185       O188   2.114       .  S
Co186       O188   2.107       .  S
Co187       O188   2.106       .  S
C189       C1873   1.439       .  S
C190       C1885   1.459       .  S
C191       C1921   1.513       .  S
C192       C1912   1.521       .  S
C193        C194   1.436       .  A
C193        C198   1.436       .  A
C193       C1837   1.514       .  S
C194        C195   1.434       .  A
C194       C2185   1.521       .  S
C195        C196   1.436       .  A
C195       C1936   1.519       .  S
C196        C197   1.433       .  A
C196       C1852   1.515       .  S
C197        C198   1.434       .  A
C197       C1861   1.519       .  S
C198       C2104   1.523       .  S
O199        C207   1.270       .  A
O199       Co219   2.005       .  S
O200        C208   1.272       .  A
O200       Co220   2.016       .  S
O201        C209   1.263       .  A
O201       Co221   1.984       .  S
O202        C210   1.260       .  A
O202       Co222   1.984       .  S
O203        C209   1.273       .  A
O203       Co220   2.068       .  S
O204        C210   1.276       .  A
O204       Co219   2.083       .  S
O205        C208   1.252       .  A
O205       Co222   1.930       .  S
O206        C207   1.259       .  A
O206       Co221   1.941       .  S
C207       C2068   1.442       .  S
C208       C1777   1.438       .  S
C209       C1801   1.529       .  S
C210       C1825   1.535       .  S
O211        C224   1.246       .  A
O211       Co219   1.921       .  S
O212        C225   1.250       .  A
O212       Co220   1.929       .  S
O213        C226   1.271       .  A
O213       Co221   2.059       .  S
O214        C227   1.274       .  A
O214       Co222   2.073       .  S
O215        C227   1.256       .  A
O215       Co220   1.975       .  S
O216        C226   1.257       .  A
O216       Co219   1.972       .  S
O217        C224   1.270       .  A
O217       Co222   2.002       .  S
O218        C225   1.272       .  A
O218       Co221   2.007       .  S
Co219       O223   2.109       .  S
Co220       O223   2.112       .  S
Co221       O223   2.113       .  S
Co222       O223   2.115       .  S
C224       C1765   1.427       .  S
C225       C1789   1.434       .  S
C226       C1864   1.513       .  S
C227       C1816   1.526       .  S
C228        C229   1.477       .  A
C228        C233   1.480       .  A
C228       C1720   1.575       .  S
C229        C230   1.449       .  A
C229       C2440   1.546       .  S
C230        C231   1.428       .  A
C230       C1756   1.535       .  S
C231        C232   1.429       .  A
C231       C1741   1.520       .  S
C232        C233   1.460       .  A
C232       C1732   1.531       .  S
C233       C1705   1.575       .  S
O234        C242   1.271       .  A
O234       Co254   2.009       .  S
O235        C243   1.277       .  A
O235       Co255   2.026       .  S
O236        C244   1.259       .  A
O236       Co256   1.976       .  S
O237        C245   1.263       .  A
O237       Co257   1.990       .  S
O238        C244   1.270       .  A
O238       Co255   2.061       .  S
O239        C245   1.272       .  A
O239       Co254   2.065       .  S
O240        C243   1.248       .  A
O240       Co257   1.922       .  S
O241        C242   1.257       .  A
O241       Co256   1.928       .  S
C242       C2392   1.433       .  S
C243       C2152   1.443       .  S
C244       C1669   1.526       .  S
C245       C1681   1.531       .  S
O246        C259   1.262       .  A
O246       Co254   1.952       .  S
O247        C260   1.253       .  A
O247       Co255   1.926       .  S
O248        C261   1.270       .  A
O248       Co256   2.048       .  S
O249        C262   1.275       .  A
O249       Co257   2.085       .  S
O250        C262   1.255       .  A
O250       Co255   1.972       .  S
O251        C261   1.267       .  A
O251       Co254   2.001       .  S
O252        C259   1.265       .  A
O252       Co257   1.968       .  S
O253        C260   1.274       .  A
O253       Co256   2.012       .  S
Co254       O258   2.134       .  S
Co255       O258   2.109       .  S
Co256       O258   2.100       .  S
Co257       O258   2.117       .  S
C259       C1657   1.456       .  S
C260       C1645   1.434       .  S
C261       C1753   1.530       .  S
C262       C1693   1.527       .  S
O263        C271   1.253   1_455  A
O263       Co283   1.937       .  S
O264        C272   1.252   1_655  A
O264       Co284   1.931       .  S
O265        C273   1.272       .  A
O265       Co285   2.064       .  S
O266        C274   1.273       .  A
O266       Co286   2.057       .  S
O267        C273   1.257       .  A
O267       Co284   1.969       .  S
O268        C274   1.261       .  A
O268       Co283   1.980       .  S
O269        C272   1.269       .  A
O269       Co286   2.005       .  S
O270        C271   1.273       .  A
O270       Co285   2.031       .  S
C271       C2284   1.451       .  S
C272       C1600   1.433       .  S
C273       C1621   1.516       .  S
C274       C1633   1.515       .  S
O275        C288   1.269       .  A
O275       Co283   2.009       .  S
O276        C289   1.270       .  A
O276       Co284   2.009       .  S
O277        C290   1.252       .  A
O277       Co285   1.963   1_455  S
O278        C291   1.258       .  A
O278       Co286   1.965   1_655  S
O279        C291   1.274       .  A
O279       Co284   2.073       .  S
O280        C290   1.274       .  A
O280       Co283   2.077       .  S
O281        C288   1.253       .  A
O281       Co286   1.930       .  S
O282        C289   1.252       .  A
O282       Co285   1.943       .  S
Co283       O287   2.125   1_455  S
Co284       O287   2.113       .  S
Co285       O287   2.111       .  S
Co286       O287   2.103   1_455  S
C288       C1588   1.440       .  S
C289       C1576   1.446       .  S
C290       C2257   1.518       .  S
C291       C1609   1.518       .  S
C292        C293   1.436       .  A
C292        C297   1.428       .  A
C292       C1513   1.513       .  S
C293        C294   1.442       .  A
C293       C1636   1.524       .  S
C294        C295   1.445       .  A
C294       C1525   1.537       .  S
C295        C296   1.445       .  A
C295       C1549   1.527       .  S
C296        C297   1.431       .  A
C296       C1537   1.518       .  S
C297       C1564   1.522       .  S
O298        C306   1.256   1_554  A
O298       Co318   1.940       .  S
O299        C307   1.264       .  A
O299       Co319   1.958   1_554  S
O300        C308   1.270       .  A
O300       Co320   2.043       .  S
O301        C309   1.274       .  A
O301       Co321   2.077       .  S
O302        C308   1.273       .  A
O302       Co319   2.009       .  S
O303        C309   1.258       .  A
O303       Co318   1.973       .  S
O304        C307   1.266       .  A
O304       Co321   1.974       .  S
O305        C306   1.273       .  A
O305       Co320   2.020       .  S
C306       C2368   1.446       .  S
C307       C1468   1.466       .  S
C308       C1501   1.534       .  S
C309       C1561   1.521       .  S
O310        C323   1.275       .  A
O310       Co318   2.023       .  S
O311        C324   1.267       .  A
O311       Co319   1.976       .  S
O312        C325   1.265   1_556  A
O312       Co320   1.991       .  S
O313        C326   1.262       .  A
O313       Co321   1.985   1_556  S
O314        C326   1.272       .  A
O314       Co319   2.062       .  S
O315        C325   1.272       .  A
O315       Co318   2.055       .  S
O316        C323   1.249       .  A
O316       Co321   1.923       .  S
O317        C324   1.263       .  A
O317       Co320   1.953       .  S
Co318       O322   2.096       .  S
Co319       O322   2.125   1_556  S
Co320       O322   2.115   1_556  S
Co321       O322   2.114       .  S
C323       C1453   1.441       .  S
C324       C1444   1.456       .  S
C325       C1480   1.529       .  S
C326       C1492   1.523       .  S
C327        C328   1.437       .  A
C327        C332   1.435       .  A
C327       C1504   1.528       .  S
C328        C329   1.444       .  A
C328       C2416   1.519       .  S
C329        C330   1.439       .  A
C329       C1408   1.517       .  S
C330        C331   1.432       .  A
C330       C1396   1.531       .  S
C331        C332   1.433       .  A
C331       C1429   1.510       .  S
C332       C1417   1.516       .  S
O333        C341   1.281       .  A
O333       Co353   2.031       .  S
O334        C342   1.276       .  A
O334       Co354   2.017       .  S
O335        C343   1.264       .  A
O335       Co355   1.992       .  S
O336        C344   1.257       .  A
O336       Co356   1.971       .  S
O337        C343   1.267       .  A
O337       Co354   2.045       .  S
O338        C344   1.267       .  A
O338       Co353   2.054       .  S
O339        C342   1.255       .  A
O339       Co356   1.921       .  S
O340        C341   1.250       .  A
O340       Co355   1.918       .  S
C341       C1321   1.443       .  S
C342       C1345   1.430       .  S
C343       C1381   1.523       .  S
C344       C1369   1.518       .  S
O345        C358   1.254       .  A
O345       Co353   1.935       .  S
O346        C359   1.262       .  A
O346       Co354   1.942       .  S
O347        C360   1.273       .  A
O347       Co355   2.075       .  S
O348        C361   1.267       .  A
O348       Co356   2.038       .  S
O349        C361   1.261       .  A
O349       Co354   1.985       .  S
O350        C360   1.253       .  A
O350       Co353   1.969       .  S
O351        C358   1.275       .  A
O351       Co356   2.011       .  S
O352        C359   1.267       .  A
O352       Co355   1.971       .  S
Co353       O357   2.092       .  S
Co354       O357   2.105       .  S
Co355       O357   2.116       .  S
Co356       O357   2.097       .  S
C358       C1357   1.439       .  S
C359       C1336   1.446       .  S
C360       C1729   1.520       .  S
C361       C1432   1.515       .  S
O362        C370   1.254   1_545  A
O362       Co382   1.930       .  S
O363        C371   1.249   1_565  A
O363       Co383   1.923       .  S
O364        C372   1.272       .  A
O364       Co384   2.054       .  S
O365        C373   1.272       .  A
O365       Co385   2.049       .  S
O366        C372   1.265       .  A
O366       Co383   1.988       .  S
O367        C373   1.269       .  A
O367       Co382   1.996       .  S
O368        C371   1.271       .  A
O368       Co385   2.014       .  S
O369        C370   1.270       .  A
O369       Co384   2.011       .  S
C370       C2080   1.437       .  S
C371       C1288   1.432       .  S
C372       C1960   1.521       .  S
C373       C1552   1.523       .  S
O374        C387   1.262       .  A
O374       Co382   1.964       .  S
O375        C388   1.264       .  A
O375       Co383   1.974       .  S
O376        C389   1.259       .  A
O376       Co384   1.970   1_545  S
O377        C390   1.261       .  A
O377       Co385   1.978   1_565  S
O378        C390   1.279       .  A
O378       Co383   2.082       .  S
O379        C389   1.276       .  A
O379       Co382   2.070       .  S
O380        C387   1.260       .  A
O380       Co385   1.948       .  S
O381        C388   1.258       .  A
O381       Co384   1.946       .  S
Co382       O386   2.109   1_545  S
Co383       O386   2.105       .  S
Co384       O386   2.111       .  S
Co385       O386   2.106   1_545  S
C387       C1273   1.447       .  S
C388       C1261   1.452       .  S
C389       C1297   1.513       .  S
C390       C1309   1.529       .  S
C391        C392   1.442       .  A
C391        C396   1.437       .  A
C391       C1384   1.516       .  S
C392        C393   1.441   1_545  A
C392       C1225   1.526       .  S
C393        C394   1.435       .  A
C393       C1312   1.526       .  S
C394        C395   1.439       .  A
C394       C1249   1.522       .  S
C395        C396   1.436   1_565  A
C395       C1216   1.516       .  S
C396       C1237   1.533       .  S
O397        C405   1.256       .  A
O397       Co417   1.932       .  S
O398        C406   1.253       .  A
O398       Co418   1.921       .  S
O399        C407   1.266       .  A
O399       Co419   2.059       .  S
O400        C408   1.269       .  A
O400       Co420   2.063       .  S
O401        C407   1.256       .  A
O401       Co418   1.969       .  S
O402        C408   1.254       .  A
O402       Co417   1.976       .  S
O403        C406   1.275       .  A
O403       Co420   2.019       .  S
O404        C405   1.281       .  A
O404       Co419   2.031       .  S
C405       C1900   1.449       .  S
C406       C1177   1.432       .  S
C407       C1192   1.521       .  S
C408       C1252   1.521       .  S
O409        C422   1.282       .  A
O409       Co417   2.036       .  S
O410        C423   1.276       .  A
O410       Co418   2.015       .  S
O411        C424   1.258       .  A
O411       Co419   1.973       .  S
O412        C425   1.252       .  A
O412       Co420   1.968       .  S
O413        C425   1.266       .  A
O413       Co418   2.056       .  S
O414        C424   1.266       .  A
O414       Co417   2.060       .  S
O415        C422   1.248       .  A
O415       Co420   1.910       .  S
O416        C423   1.257       .  A
O416       Co419   1.939       .  S
Co417       O421   2.116       .  S
Co418       O421   2.107       .  S
Co419       O421   2.111       .  S
Co420       O421   2.120       .  S
C422       C1264   1.438       .  S
C423       C1165   1.443       .  S
C424       C1948   1.524       .  S
C425       C1204   1.515       .  S
O426        C434   1.249       .  A
O426       Co446   1.921       .  S
O427        C435   1.249       .  A
O427       Co447   1.911       .  S
O428        C436   1.266       .  A
O428       Co448   2.038       .  S
O429        C437   1.271       .  A
O429       Co449   2.071       .  S
O430        C436   1.265   1_545  A
O430       Co447   1.996       .  S
O431        C437   1.261   1_565  A
O431       Co446   1.986       .  S
O432        C435   1.280       .  A
O432       Co449   2.022       .  S
O433        C434   1.276       .  A
O433       Co448   2.010       .  S
C434       C1768   1.426       .  S
C435       C1333   1.430       .  S
C436       C1153   1.518       .  S
C437       C1240   1.536       .  S
O438        C451   1.274       .  A
O438       Co446   2.011       .  S
O439        C452   1.267       .  A
O439       Co447   1.981       .  S
O440        C453   1.258       .  A
O440       Co448   1.974       .  S
O441        C454   1.251       .  A
O441       Co449   1.978       .  S
O442        C454   1.276       .  A
O442       Co447   2.080       .  S
O443        C453   1.270       .  A
O443       Co446   2.059       .  S
O444        C451   1.253   1_545  A
O444       Co449   1.931       .  S
O445        C452   1.260   1_565  A
O445       Co448   1.934       .  S
Co446       O450   2.109       .  S
Co447       O450   2.115   1_545  S
Co448       O450   2.100       .  S
Co449       O450   2.095   1_545  S
C451       C1132   1.437       .  S
C452       C1117   1.433       .  S
C453       C1141   1.518       .  S
C454       C1708   1.518       .  S
C455        C456   1.445   1_545  A
C455        C460   1.438       .  A
C455       C1300   1.520       .  S
C456        C457   1.444   1_554  A
C456       C2128   1.534       .  S
C457        C458   1.445       .  A
C457       C1828   1.536       .  S
C458        C459   1.441   1_565  A
C458       C1156   1.517       .  S
C459        C460   1.435   1_556  A
C459       C1093   1.532       .  S
C460       C1105   1.522       .  S
O461        C469   1.254       .  A
O461       Co481   1.929       .  S
O462        C470   1.265       .  A
O462       Co482   1.952       .  S
O463        C471   1.265       .  A
O463       Co483   2.039       .  S
O464        C472   1.271       .  A
O464       Co484   2.081       .  S
O465        C471   1.260       .  A
O465       Co482   1.980       .  S
O466        C472   1.250       .  A
O466       Co481   1.966       .  S
O467        C470   1.264       .  A
O467       Co484   1.951       .  S
O468        C469   1.281       .  A
O468       Co483   2.025       .  S
C469       C1465   1.448       .  S
C470       C1060   1.453       .  S
C471       C1069   1.518       .  S
C472       C1108   1.525       .  S
O473        C486   1.282       .  A
O473       Co481   2.031       .  S
O474        C487   1.281       .  A
O474       Co482   2.025       .  S
O475        C488   1.259       .  A
O475       Co483   1.979       .  S
O476        C489   1.266       .  A
O476       Co484   2.003       .  S
O477        C489   1.264       .  A
O477       Co482   2.044       .  S
O478        C488   1.265       .  A
O478       Co481   2.057       .  S
O479        C486   1.247       .  A
O479       Co484   1.898       .  S
O480        C487   1.258       .  A
O480       Co483   1.930       .  S
Co481       O485   2.105       .  S
Co482       O485   2.109       .  S
Co483       O485   2.102       .  S
Co484       O485   2.113       .  S
C486       C1276   1.427       .  S
C487       C1045   1.444       .  S
C488       C1540   1.522       .  S
C489       C1081   1.533       .  S
O490        C498   1.271       .  A
O490       Co510   2.013       .  S
O491        C499   1.268       .  A
O491       Co511   2.003       .  S
O492        C500   1.257       .  A
O492       Co512   1.976       .  S
O493        C501   1.260       .  A
O493       Co513   1.978       .  S
O494        C500   1.276       .  A
O494       Co511   2.081       .  S
O495        C501   1.274       .  A
O495       Co510   2.070       .  S
O496        C499   1.253       .  A
O496       Co513   1.930       .  S
O497        C498   1.248       .  A
O497       Co512   1.919       .  S
C498       C1585   1.430       .  S
C499       C1348   1.433       .  S
C500       C1393   1.527       .  S
C501       C1528   1.523       .  S
O502        C515   1.253       .  A
O502       Co510   1.936       .  S
O503        C516   1.252       .  A
O503       Co511   1.933       .  S
O504        C517   1.277       .  A
O504       Co512   2.087       .  S
O505        C518   1.274       .  A
O505       Co513   2.073       .  S
O506        C518   1.259       .  A
O506       Co511   1.978       .  S
O507        C517   1.258       .  A
O507       Co510   1.977       .  S
O508        C515   1.270       .  A
O508       Co513   2.010       .  S
O509        C516   1.268       .  A
O509       Co512   2.004       .  S
Co510       O514   2.113       .  S
Co511       O514   2.118       .  S
Co512       O514   2.122       .  S
Co513       O514   2.123       .  S
C515       C1285   1.442       .  S
C516       C1036   1.436       .  S
C517       C2233   1.535       .  S
C518       C1228   1.527       .  S
C519        C520   1.435       .  A
C519        C524   1.436       .  A
C519       C2332   1.515       .  S
C520        C521   1.434       .  A
C520       C2029   1.512       .  S
C521        C522   1.429       .  A
C521       C1012   1.519       .  S
C522        C523   1.433       .  A
C522       C1021   1.513       .  S
C523        C524   1.435       .  A
C523       C1201   1.513       .  S
C524       C1000   1.522       .  S
O525        C533   1.272       .  A
O525       Co545   2.011       .  S
O526        C534   1.269       .  A
O526       Co546   1.989       .  S
O527        C535   1.260       .  A
O527       Co547   1.980       .  S
O528        C536   1.262       .  A
O528       Co548   1.982       .  S
O529        C535   1.275       .  A
O529       Co546   2.079       .  S
O530        C536   1.272       .  A
O530       Co545   2.056       .  S
O531        C534   1.263       .  A
O531       Co548   1.954       .  S
O532        C533   1.254       .  A
O532       Co547   1.937       .  S
C533       C1168   1.442       .  S
C534       C1048   1.457       .  S
C535        C961   1.530       .  S
C536        C973   1.522       .  S
O537        C550   1.252       .  A
O537       Co545   1.928       .  S
O538        C551   1.254       .  A
O538       Co546   1.937       .  S
O539        C552   1.272       .  A
O539       Co547   2.067       .  S
O540        C553   1.269       .  A
O540       Co548   2.045       .  S
O541        C553   1.266       .  A
O541       Co546   1.997       .  S
O542        C552   1.256       .  A
O542       Co545   1.970       .  S
O543        C550   1.274       .  A
O543       Co548   2.023       .  S
O544        C551   1.273       .  A
O544       Co547   2.007       .  S
Co545       O549   2.103       .  S
Co546       O549   2.112       .  S
Co547       O549   2.108       .  S
Co548       O549   2.108       .  S
C550        C937   1.439       .  S
C551        C949   1.441       .  S
C552       C1024   1.519       .  S
C553        C988   1.524       .  S
C554        C555   1.439       .  A
C554        C559   1.437       .  A
C554       C1084   1.527       .  S
C555        C556   1.436       .  A
C555        C913   1.512       .  S
C556        C557   1.431       .  A
C556       C2344   1.519       .  S
C557        C558   1.434       .  A
C557       C1624   1.513       .  S
C558        C559   1.434       .  A
C558        C928   1.518       .  S
C559        C985   1.521       .  S
C560        C561   1.437       .  A
C560        C565   1.439       .  A
C560       C2212   1.522       .  S
C561        C562   1.438       .  A
C561       C1696   1.521       .  S
C562        C563   1.435       .  A
C562        C901   1.516       .  S
C563        C564   1.433       .  A
C563       C1813   1.525       .  S
C564        C565   1.436       .  A
C564       C1144   1.513       .  S
C565        C892   1.522       .  S
O566        C574   1.246   1_545  A
O566       Co586   1.914       .  S
O567        C575   1.254   1_565  A
O567       Co587   1.922       .  S
O568        C576   1.271       .  A
O568       Co588   2.067       .  S
O569        C577   1.271       .  A
O569       Co589   2.060       .  S
O570        C576   1.257       .  A
O570       Co587   1.973       .  S
O571        C577   1.258       .  A
O571       Co586   1.979       .  S
O572        C575   1.274       .  A
O572       Co589   2.018       .  S
O573        C574   1.275       .  A
O573       Co588   2.023       .  S
C574       C2092   1.435       .  S
C575       C1033   1.433       .  S
C576       C1840   1.525       .  S
C577       C1405   1.523       .  S
O578        C591   1.266       .  A
O578       Co586   1.978       .  S
O579        C592   1.272       .  A
O579       Co587   2.011       .  S
O580        C593   1.248       .  A
O580       Co588   1.953   1_545  S
O581        C594   1.259       .  A
O581       Co589   1.979   1_565  S
O582        C594   1.270       .  A
O582       Co587   2.051       .  S
O583        C593   1.274       .  A
O583       Co586   2.092       .  S
O584        C591   1.259       .  A
O584       Co589   1.948       .  S
O585        C592   1.248       .  A
O585       Co588   1.924       .  S
Co586       O590   2.118   1_545  S
Co587       O590   2.106       .  S
Co588       O590   2.093       .  S
Co589       O590   2.118   1_545  S
C591       C2380   1.453       .  S
C592       C2140   1.431       .  S
C593       C2464   1.523       .  S
C594       C2245   1.517       .  S
O595        C603   1.256       .  A
O595       Co615   1.935       .  S
O596        C604   1.252       .  A
O596       Co616   1.932       .  S
O597        C605   1.274       .  A
O597       Co617   2.068       .  S
O598        C606   1.272       .  A
O598       Co618   2.053       .  S
O599        C605   1.257       .  A
O599       Co616   1.970       .  S
O600        C606   1.269       .  A
O600       Co615   1.997       .  S
O601        C604   1.271       .  A
O601       Co618   2.013       .  S
O602        C603   1.273       .  A
O602       Co617   2.021       .  S
C603       C1648   1.450       .  S
C604        C940   1.438       .  S
C605        C877   1.519       .  S
C606        C865   1.530       .  S
O607        C620   1.263       .  A
O607       Co615   1.964       .  S
O608        C621   1.270       .  A
O608       Co616   2.008       .  S
O609        C622   1.257       .  A
O609       Co617   1.971       .  S
O610        C623   1.261       .  A
O610       Co618   1.976       .  S
O611        C623   1.273       .  A
O611       Co616   2.057       .  S
O612        C622   1.274       .  A
O612       Co615   2.066       .  S
O613        C620   1.261       .  A
O613       Co618   1.955       .  S
O614        C621   1.253       .  A
O614       Co617   1.942       .  S
Co615       O619   2.105       .  S
Co616       O619   2.102       .  S
Co617       O619   2.111       .  S
Co618       O619   2.115       .  S
C620       C1324   1.460       .  S
C621       C1573   1.445       .  S
C622       C1744   1.511       .  S
C623        C925   1.516       .  S
C624        C625   1.437       .  A
C624        C629   1.438       .  A
C624        C880   1.516       .  S
C625        C626   1.437   1_655  A
C625       C1672   1.522       .  S
C626        C627   1.439       .  A
C626       C2200   1.531       .  S
C627        C628   1.444       .  A
C627       C1924   1.517       .  S
C628        C629   1.441   1_455  A
C628        C853   1.529       .  S
C629       C1612   1.526       .  S
O630        C638   1.280       .  A
O630       Co650   2.025       .  S
O631        C639   1.276       .  A
O631       Co651   2.017       .  S
O632        C640   1.253       .  A
O632       Co652   1.970       .  S
O633        C641   1.259       .  A
O633       Co653   1.979       .  S
O634        C640   1.268       .  A
O634       Co651   2.067       .  S
O635        C641   1.267       .  A
O635       Co650   2.059       .  S
O636        C639   1.256   1_554  A
O636       Co653   1.929       .  S
O637        C638   1.253   1_556  A
O637       Co652   1.922       .  S
C638       C1996   1.440       .  S
C639       C1780   1.436       .  S
C640        C904   1.521       .  S
C641       C1009   1.525       .  S
O642        C655   1.254       .  A
O642       Co650   1.931       .  S
O643        C656   1.250       .  A
O643       Co651   1.917       .  S
O644        C657   1.267       .  A
O644       Co652   2.063       .  S
O645        C658   1.264       .  A
O645       Co653   2.045       .  S
O646        C658   1.252       .  A
O646       Co651   1.968   1_554  S
O647        C657   1.255       .  A
O647       Co650   1.966   1_556  S
O648        C655   1.277       .  A
O648       Co653   2.019       .  S
O649        C656   1.279       .  A
O649       Co652   2.025       .  S
Co650       O654   2.102       .  S
Co651       O654   2.117   1_556  S
Co652       O654   2.111   1_556  S
Co653       O654   2.110       .  S
C655        C952   1.438       .  S
C656       C1660   1.438       .  S
C657        C829   1.520       .  S
C658        C841   1.508       .  S
C659        C660   1.432       .  A
C659        C664   1.433       .  A
C659        C817   1.520       .  S
C660        C661   1.437   1_556  A
C660       C1804   1.524       .  S
C661        C662   1.437       .  A
C661        C844   1.508       .  S
C662        C663   1.436       .  A
C662        C964   1.528       .  S
C663        C664   1.438   1_554  A
C663       C1072   1.515       .  S
C664       C1489   1.517       .  S
O665        C673   1.254   1_554  A
O665       Co685   1.928       .  S
O666        C674   1.252   1_556  A
O666       Co686   1.914       .  S
O667        C675   1.269       .  A
O667       Co687   2.064       .  S
O668        C676   1.264       .  A
O668       Co688   2.038       .  S
O669        C675   1.262       .  A
O669       Co686   1.988       .  S
O670        C676   1.263       .  A
O670       Co685   1.991       .  S
O671        C674   1.283       .  A
O671       Co688   2.025       .  S
O672        C673   1.277       .  A
O672       Co687   2.016       .  S
C673       C2404   1.437       .  S
C674       C1057   1.440       .  S
C675       C1717   1.521       .  S
C676        C916   1.522       .  S
O677        C690   1.273       .  A
O677       Co685   1.991       .  S
O678        C691   1.273       .  A
O678       Co686   1.959       .  S
O679        C692   1.258       .  A
O679       Co687   1.981   1_554  S
O680        C693   1.267   1_554  A
O680       Co688   2.006       .  S
O681        C693   1.269       .  A
O681       Co686   2.055       .  S
O682        C692   1.268       .  A
O682       Co685   2.058       .  S
O683        C690   1.268       .  A
O683       Co688   1.960       .  S
O684        C691   1.254       .  A
O684       Co687   1.936       .  S
Co685       O689   2.101       .  S
Co686       O689   2.099   1_556  S
Co687       O689   2.112   1_556  S
Co688       O689   2.106       .  S
C690       C2296   1.466       .  S
C691       C1120   1.446       .  S
C692       C2449   1.520       .  S
C693       C1096   1.535       .  S
O694        C702   1.281       .  A
O694       Co714   2.027       .  S
O695        C703   1.282       .  A
O695       Co715   2.028       .  S
O696        C704   1.258       .  A
O696       Co716   1.978       .  S
O697        C705   1.255       .  A
O697       Co717   1.969       .  S
O698        C704   1.266       .  A
O698       Co715   2.060       .  S
O699        C705   1.266       .  A
O699       Co714   2.065       .  S
O700        C703   1.253       .  A
O700       Co717   1.917       .  S
O701        C702   1.257       .  A
O701       Co716   1.929       .  S
C702       C1888   1.446       .  S
C703       C1441   1.440       .  S
C704       C1420   1.525       .  S
C705       C1849   1.525       .  S
O706        C719   1.253       .  A
O706       Co714   1.923       .  S
O707        C720   1.255       .  A
O707       Co715   1.932       .  S
O708        C721   1.265       .  A
O708       Co716   2.055       .  S
O709        C722   1.267       .  A
O709       Co717   2.061       .  S
O710        C722   1.258       .  A
O710       Co715   1.983       .  S
O711        C721   1.255       .  A
O711       Co714   1.976       .  S
O712        C719   1.277       .  A
O712       Co717   2.017       .  S
O713        C720   1.279       .  A
O713       Co716   2.021       .  S
Co714       O718   2.103       .  S
Co715       O718   2.105       .  S
Co716       O718   2.118       .  S
Co717       O718   2.115       .  S
C719       C1792   1.432       .  S
C720       C1360   1.440       .  S
C721        C805   1.519       .  S
C722        C820   1.527       .  S
O723        C731   1.276       .  A
O723       Co743   2.015       .  S
O724        C732   1.274       .  A
O724       Co744   2.006       .  S
O725        C733   1.256       .  A
O725       Co745   1.970       .  S
O726        C734   1.256       .  A
O726       Co746   1.970       .  S
O727        C733   1.266       .  A
O727       Co744   2.046       .  S
O728        C734   1.272       .  A
O728       Co743   2.077       .  S
O729        C732   1.255       .  A
O729       Co746   1.937       .  S
O730        C731   1.253       .  A
O730       Co745   1.927       .  S
C731       C2308   1.443       .  S
C732       C1129   1.437       .  S
C733       C1213   1.504       .  S
C734       C2224   1.532       .  S
O735        C748   1.251       .  A
O735       Co743   1.921       .  S
O736        C749   1.257       .  A
O736       Co744   1.932       .  S
O737        C750   1.270       .  A
O737       Co745   2.065       .  S
O738        C751   1.269       .  A
O738       Co746   2.058       .  S
O739        C751   1.262       .  A
O739       Co744   1.984       .  S
O740        C750   1.257       .  A
O740       Co743   1.980       .  S
O741        C748   1.278       .  A
O741       Co746   2.019       .  S
O742        C749   1.274       .  A
O742       Co745   2.014       .  S
Co743       O747   2.119       .  S
Co744       O747   2.117       .  S
Co745       O747   2.119       .  S
Co746       O747   2.104       .  S
C748       C2176   1.439       .  S
C749       C1180   1.438       .  S
C750        C997   1.526       .  S
C751        C889   1.527       .  S
O752        C760   1.253       .  A
O752       Co772   1.933       .  S
O753        C761   1.256       .  A
O753       Co773   1.931       .  S
O754        C762   1.270       .  A
O754       Co774   2.049       .  S
O755        C763   1.274       .  A
O755       Co775   2.069       .  S
O756        C762   1.265       .  A
O756       Co773   1.989       .  S
O757        C763   1.260       .  A
O757       Co772   1.983       .  S
O758        C761   1.273       .  A
O758       Co775   2.020       .  S
O759        C760   1.273       .  A
O759       Co774   2.007       .  S
C760       C2008   1.436       .  S
C761       C1597   1.443       .  S
C762        C796   1.522       .  S
C763        C856   1.527       .  S
O764        C777   1.272       .  A
O764       Co772   2.009       .  S
O765        C778   1.268       .  A
O765       Co773   1.988       .  S
O766        C779   1.262       .  A
O766       Co774   1.974       .  S
O767        C780   1.256       .  A
O767       Co775   1.968       .  S
O768        C780   1.272       .  A
O768       Co773   2.056       .  S
O769        C779   1.272       .  A
O769       Co772   2.062       .  S
O770        C777   1.253       .  A
O770       Co775   1.939       .  S
O771        C778   1.260       .  A
O771       Co774   1.950       .  S
Co772       O776   2.110       .  S
Co773       O776   2.108       .  S
Co774       O776   2.105       .  S
Co775       O776   2.105       .  S
C777       C1876   1.442       .  S
C778       C1456   1.455       .  S
C779       C1969   1.518       .  S
C780       C1516   1.504       .  S
C781        C782   1.431       .  A
C781        C786   1.432       .  A
C781        C808   1.519       .  S
C782        C783   1.439       .  A
C782       C1909   1.521       .  S
C783        C784   1.438       .  A
C783       C1189   1.514       .  S
C784        C785   1.434       .  A
C784        C976   1.520       .  S
C785        C786   1.436       .  A
C785        C868   1.524       .  S
C786       C1372   1.509       .  S
C787        C788   1.435       .  A
C787        C792   1.431   1_455  A
C787        C793   1.516       .  S
C788        C789   1.436   1_554  A
C788       C1477   1.519       .  S
C789        C790   1.440   1_455  A
C789       C2428   1.524       .  S
C790        C791   1.441       .  A
C790       C1684   1.528       .  S
C791        C792   1.436   1_556  A
C791        C832   1.516       .  S
C792       C2020   1.522       .  S
C793        C794   1.405       .  A
C793        C798   1.412       .  A
C794        C795   1.412       .  A
C794        H799   1.085   1_455  S
C795        C796   1.423       .  A
C795        C802   1.443       .  S
C796        C797   1.418       .  A
C797        C798   1.418       .  A
C797        H800   1.084       .  S
C798        C801   1.442       .  S
C801        N803   1.157       .  T
C802        N804   1.157       .  T
C805        C806   1.410       .  A
C805        C810   1.421       .  A
C806        C807   1.409       .  A
C806        H811   1.084       .  S
C807        C808   1.413       .  A
C807        C814   1.443       .  S
C808        C809   1.409       .  A
C809        C810   1.419       .  A
C809        H812   1.084       .  S
C810        C813   1.442       .  S
C813        N815   1.157       .  T
C814        N816   1.157       .  T
C817        C818   1.406       .  A
C817        C822   1.414       .  A
C818        C819   1.420       .  A
C818        H823   1.084       .  S
C819        C820   1.424       .  A
C819        C826   1.439       .  S
C820        C821   1.413       .  A
C821        C822   1.413       .  A
C821        H824   1.084       .  S
C822        C825   1.444       .  S
C825        N827   1.157       .  T
C826        N828   1.156       .  T
C829        C830   1.410   1_556  A
C829        C834   1.421       .  A
C830        C831   1.408       .  A
C830        H835   1.084       .  S
C831        C832   1.413   1_554  A
C831        C838   1.442       .  S
C832        C833   1.408       .  A
C833        C834   1.420       .  A
C833        H836   1.083       .  S
C834        C837   1.440       .  S
C837        N839   1.156       .  T
C838        N840   1.157       .  T
C841        C842   1.407       .  A
C841        C846   1.420   1_554  A
C842        C843   1.412       .  A
C842        H847   1.083       .  S
C843        C844   1.415       .  A
C843        C850   1.440       .  S
C844        C845   1.404   1_554  A
C845        C846   1.406       .  A
C845        H848   1.085       .  S
C846        C849   1.443       .  S
C849        N851   1.157       .  T
C850        N852   1.157       .  T
C853        C854   1.409       .  A
C853        C858   1.419       .  A
C854        C855   1.414       .  A
C854        H859   1.085   1_455  S
C855        C856   1.422       .  A
C855        C862   1.443       .  S
C856        C857   1.414       .  A
C857        C858   1.419       .  A
C857        H860   1.083       .  S
C858        C861   1.441       .  S
C861        N863   1.157       .  T
C862        N864   1.157   1_455  T
C865        C866   1.418       .  A
C865        C870   1.422       .  A
C866        C867   1.419       .  A
C866        H871   1.084       .  S
C867        C868   1.413       .  A
C867        C874   1.442       .  S
C868        C869   1.409       .  A
C869        C870   1.418       .  A
C869        H872   1.085       .  S
C870        C873   1.442       .  S
C873        N875   1.157       .  T
C874        N876   1.157       .  T
C877        C878   1.414       .  A
C877        C882   1.423       .  A
C878        C879   1.418       .  A
C878        H883   1.084       .  S
C879        C880   1.415       .  A
C879        C886   1.441       .  S
C880        C881   1.403       .  A
C881        C882   1.408       .  A
C881        H884   1.084       .  S
C882        C885   1.444       .  S
C885        N887   1.157       .  T
C886        N888   1.157       .  T
C889        C890   1.415       .  A
C889        C894   1.422       .  A
C890        C891   1.419       .  A
C890        H895   1.084       .  S
C891        C892   1.415       .  A
C891        C898   1.441       .  S
C892        C893   1.407       .  A
C893        C894   1.414       .  A
C893        H896   1.085       .  S
C894        C897   1.443       .  S
C897        N899   1.157       .  T
C898        N900   1.157       .  T
C901        C902   1.408       .  A
C901        C906   1.413       .  A
C902        C903   1.419       .  A
C902        H907   1.084       .  S
C903        C904   1.421       .  A
C903        C910   1.440       .  S
C904        C905   1.412       .  A
C905        C906   1.410       .  A
C905        H908   1.084       .  S
C906        C909   1.443       .  S
C909        N911   1.157       .  T
C910        N912   1.157       .  T
C913        C914   1.404       .  A
C913        C918   1.415       .  A
C914        C915   1.415       .  A
C914        H919   1.084       .  S
C915        C916   1.427       .  A
C915        C922   1.443       .  S
C916        C917   1.406       .  A
C917        C918   1.409       .  A
C917        H920   1.084       .  S
C918        C921   1.441       .  S
C921        N923   1.156       .  T
C922        N924   1.157       .  T
C925        C926   1.410       .  A
C925        C930   1.421       .  A
C926        C927   1.415       .  A
C926        H931   1.083       .  S
C927        C928   1.415       .  A
C927        C934   1.440       .  S
C928        C929   1.407       .  A
C929        C930   1.411       .  A
C929        H932   1.085       .  S
C930        C933   1.444       .  S
C933        N935   1.157       .  T
C934        N936   1.157       .  T
C937        C938   1.393       .  A
C937        C942   1.407       .  A
C938        C939   1.387       .  A
C938        H943   1.085       .  S
C939        C940   1.407       .  A
C939        C946   1.441       .  S
C940        C941   1.391       .  A
C941        C942   1.386       .  A
C941        H944   1.085       .  S
C942        C945   1.439       .  S
C945        N947   1.156       .  T
C946        N948   1.156       .  T
C949        C950   1.400       .  A
C949        C954   1.401       .  A
C950        C951   1.384       .  A
C950        H955   1.082       .  S
C951        C952   1.398       .  A
C951        C958   1.440       .  S
C952        C953   1.400       .  A
C953        C954   1.389       .  A
C953        H956   1.083       .  S
C954        C957   1.441       .  S
C957        N959   1.156       .  T
C958        N960   1.156       .  T
C961        C962   1.412       .  A
C961        C966   1.425       .  A
C962        C963   1.413       .  A
C962        H967   1.084       .  S
C963        C964   1.415       .  A
C963        C970   1.443       .  S
C964        C965   1.410       .  A
C965        C966   1.424       .  A
C965        H968   1.084       .  S
C966        C969   1.442       .  S
C969        N971   1.157       .  T
C970        N972   1.157       .  T
C973        C974   1.411       .  A
C973        C978   1.422       .  A
C974        C975   1.416       .  A
C974        H979   1.082       .  S
C975        C976   1.414       .  A
C975        C982   1.440       .  S
C976        C977   1.407       .  A
C977        C978   1.413       .  A
C977        H980   1.084       .  S
C978        C981   1.443       .  S
C981        N983   1.157       .  T
C982        N984   1.157       .  T
C985        C986   1.406       .  A
C985        C990   1.417       .  A
C986        C987   1.419       .  A
C986        H991   1.084       .  S
C987        C988   1.427       .  A
C987        C994   1.442       .  S
C988        C989   1.409       .  A
C989        C990   1.413       .  A
C989        H992   1.084       .  S
C990        C993   1.441       .  S
C993        N995   1.157       .  T
C994        N996   1.157       .  T
C997        C998   1.413       .  A
C997       C1002   1.423       .  A
C998        C999   1.413       .  A
C998       H1003   1.084       .  S
C999       C1000   1.414       .  A
C999       C1006   1.443       .  S
C1000      C1001   1.409       .  A
C1001      C1002   1.421       .  A
C1001      H1004   1.084       .  S
C1002      C1005   1.441       .  S
C1005      N1007   1.157       .  T
C1006      N1008   1.157       .  T
C1009      C1010   1.412       .  A
C1009      C1014   1.424       .  A
C1010      C1011   1.412       .  A
C1010      H1015   1.084       .  S
C1011      C1012   1.413       .  A
C1011      C1018   1.443       .  S
C1012      C1013   1.407       .  A
C1013      C1014   1.419       .  A
C1013      H1016   1.084       .  S
C1014      C1017   1.442       .  S
C1017      N1019   1.157       .  T
C1018      N1020   1.157       .  T
C1021      C1022   1.401       .  A
C1021      C1026   1.414       .  A
C1022      C1023   1.406       .  A
C1022      H1027   1.085       .  S
C1023      C1024   1.424       .  A
C1023      C1030   1.443       .  S
C1024      C1025   1.415       .  A
C1025      C1026   1.418       .  A
C1025      H1028   1.084       .  S
C1026      C1029   1.441       .  S
C1029      N1031   1.157       .  T
C1030      N1032   1.158       .  T
C1033      C1034   1.388       .  A
C1033      C1038   1.407       .  A
C1034      C1035   1.381       .  A
C1034      H1039   1.086       .  S
C1035      C1036   1.406       .  A
C1035      C1042   1.435       .  S
C1036      C1037   1.393       .  A
C1037      C1038   1.388       .  A
C1037      H1040   1.085       .  S
C1038      C1041   1.439   1_545  S
C1041      N1043   1.156       .  T
C1042      N1044   1.154       .  T
C1045      C1046   1.384       .  A
C1045      C1050   1.408       .  A
C1046      C1047   1.377       .  A
C1046      H1051   1.078       .  S
C1047      C1048   1.415       .  A
C1047      C1054   1.440       .  S
C1048      C1049   1.402       .  A
C1049      C1050   1.398       .  A
C1049      H1052   1.085       .  S
C1050      C1053   1.443       .  S
C1053      N1055   1.157       .  T
C1054      N1056   1.155       .  T
C1057      C1058   1.379       .  A
C1057      C1062   1.406       .  A
C1058      C1059   1.365       .  A
C1058      H1063   1.047       .  S
C1059      C1060   1.422       .  A
C1059      C1066   1.450       .  S
C1060      C1061   1.405       .  A
C1061      C1062   1.399       .  A
C1061      H1064   1.083       .  S
C1062      C1065   1.442   1_554  S
C1065      N1067   1.157       .  T
C1066      N1068   1.157       .  T
C1069      C1070   1.411       .  A
C1069      C1074   1.420       .  A
C1070      C1071   1.413       .  A
C1070      H1075   1.084       .  S
C1071      C1072   1.413       .  A
C1071      C1078   1.440       .  S
C1072      C1073   1.407       .  A
C1073      C1074   1.413       .  A
C1073      H1076   1.085       .  S
C1074      C1077   1.443       .  S
C1077      N1079   1.157       .  T
C1078      N1080   1.157       .  T
C1081      C1082   1.412       .  A
C1081      C1086   1.427       .  A
C1082      C1083   1.419       .  A
C1082      H1087   1.084       .  S
C1083      C1084   1.418       .  A
C1083      C1090   1.443       .  S
C1084      C1085   1.406       .  A
C1085      C1086   1.421       .  A
C1085      H1088   1.083       .  S
C1086      C1089   1.443       .  S
C1089      N1091   1.157       .  T
C1090      N1092   1.157       .  T
C1093      C1094   1.408       .  A
C1093      C1098   1.417   1_556  A
C1094      C1095   1.421       .  A
C1094      H1099   1.083       .  S
C1095      C1096   1.428       .  A
C1095      C1102   1.443       .  S
C1096      C1097   1.413   1_556  A
C1097      C1098   1.420       .  A
C1097      H1100   1.084       .  S
C1098      C1101   1.442   1_545  S
C1101      N1103   1.157       .  T
C1102      N1104   1.157       .  T
C1105      C1106   1.403       .  A
C1105      C1110   1.418       .  A
C1106      C1107   1.409       .  A
C1106      H1111   1.085       .  S
C1107      C1108   1.426       .  A
C1107      C1114   1.444       .  S
C1108      C1109   1.414       .  A
C1109      C1110   1.421       .  A
C1109      H1112   1.084       .  S
C1110      C1113   1.441       .  S
C1113      N1115   1.157       .  T
C1114      N1116   1.157       .  T
C1117      C1118   1.409       .  A
C1117      C1122   1.400       .  A
C1118      C1119   1.402       .  A
C1118      H1123   1.085   1_545  S
C1119      C1120   1.404       .  A
C1119      C1126   1.442   1_545  S
C1120      C1121   1.396       .  A
C1121      C1122   1.358       .  A
C1121      H1124   1.085       .  S
C1122      C1125   1.445       .  S
C1125      N1127   1.158       .  T
C1126      N1128   1.157       .  T
C1129      C1130   1.402       .  A
C1129      C1134   1.399       .  A
C1130      C1131   1.388       .  A
C1130      H1135   1.085       .  S
C1131      C1132   1.400       .  A
C1131      C1138   1.442       .  S
C1132      C1133   1.400       .  A
C1133      C1134   1.385       .  A
C1133      H1136   1.083   1_565  S
C1134      C1137   1.442       .  S
C1137      N1139   1.157   1_565  T
C1138      N1140   1.156       .  T
C1141      C1142   1.410       .  A
C1141      C1146   1.423       .  A
C1142      C1143   1.407       .  A
C1142      H1147   1.084       .  S
C1143      C1144   1.412       .  A
C1143      C1150   1.444       .  S
C1144      C1145   1.407       .  A
C1145      C1146   1.418       .  A
C1145      H1148   1.084       .  S
C1146      C1149   1.442       .  S
C1149      N1151   1.157       .  T
C1150      N1152   1.157       .  T
C1153      C1154   1.409   1_565  A
C1153      C1158   1.423       .  A
C1154      C1155   1.412       .  A
C1154      H1159   1.084       .  S
C1155      C1156   1.417   1_545  A
C1155      C1162   1.444       .  S
C1156      C1157   1.406       .  A
C1157      C1158   1.417       .  A
C1157      H1160   1.084       .  S
C1158      C1161   1.443       .  S
C1161      N1163   1.157       .  T
C1162      N1164   1.157       .  T
C1165      C1166   1.401       .  A
C1165      C1170   1.400       .  A
C1166      C1167   1.389       .  A
C1166      H1171   1.083       .  S
C1167      C1168   1.401       .  A
C1167      C1174   1.443       .  S
C1168      C1169   1.401       .  A
C1169      C1170   1.389       .  A
C1169      H1172   1.085       .  S
C1170      C1173   1.441       .  S
C1173      N1175   1.157       .  T
C1174      N1176   1.157       .  T
C1177      C1178   1.388       .  A
C1177      C1182   1.407       .  A
C1178      C1179   1.383       .  A
C1178      H1183   1.086       .  S
C1179      C1180   1.409       .  A
C1179      C1186   1.437       .  S
C1180      C1181   1.392       .  A
C1181      C1182   1.387       .  A
C1181      H1184   1.085       .  S
C1182      C1185   1.439       .  S
C1185      N1187   1.156       .  T
C1186      N1188   1.155       .  T
C1189      C1190   1.407       .  A
C1189      C1194   1.413       .  A
C1190      C1191   1.419       .  A
C1190      H1195   1.084       .  S
C1191      C1192   1.423       .  A
C1191      C1198   1.441       .  S
C1192      C1193   1.410       .  A
C1193      C1194   1.408       .  A
C1193      H1196   1.084       .  S
C1194      C1197   1.443       .  S
C1197      N1199   1.157       .  T
C1198      N1200   1.157       .  T
C1201      C1202   1.405       .  A
C1201      C1206   1.413       .  A
C1202      C1203   1.410       .  A
C1202      H1207   1.085       .  S
C1203      C1204   1.422       .  A
C1203      C1210   1.443       .  S
C1204      C1205   1.410       .  A
C1205      C1206   1.414       .  A
C1205      H1208   1.082       .  S
C1206      C1209   1.441       .  S
C1209      N1211   1.157       .  T
C1210      N1212   1.157       .  T
C1213      C1214   1.406       .  A
C1213      C1218   1.415       .  A
C1214      C1215   1.406       .  A
C1214      H1219   1.085       .  S
C1215      C1216   1.417       .  A
C1215      C1222   1.444       .  S
C1216      C1217   1.411       .  A
C1217      C1218   1.415       .  A
C1217      H1220   1.083       .  S
C1218      C1221   1.444       .  S
C1221      N1223   1.157       .  T
C1222      N1224   1.157   1_565  T
C1225      C1226   1.406       .  A
C1225      C1230   1.417       .  A
C1226      C1227   1.413       .  A
C1226      H1231   1.085       .  S
C1227      C1228   1.423       .  A
C1227      C1234   1.443       .  S
C1228      C1229   1.414       .  A
C1229      C1230   1.422       .  A
C1229      H1232   1.084       .  S
C1230      C1233   1.442       .  S
C1233      N1235   1.157       .  T
C1234      N1236   1.157       .  T
C1237      C1238   1.409       .  A
C1237      C1242   1.417       .  A
C1238      C1239   1.418       .  A
C1238      H1243   1.085   1_545  S
C1239      C1240   1.425       .  A
C1239      C1246   1.443   1_545  S
C1240      C1241   1.416       .  A
C1241      C1242   1.422       .  A
C1241      H1244   1.083       .  S
C1242      C1245   1.441       .  S
C1245      N1247   1.157       .  T
C1246      N1248   1.157       .  T
C1249      C1250   1.408       .  A
C1249      C1254   1.413       .  A
C1250      C1251   1.416       .  A
C1250      H1255   1.081       .  S
C1251      C1252   1.420       .  A
C1251      C1258   1.440       .  S
C1252      C1253   1.413       .  A
C1253      C1254   1.412       .  A
C1253      H1256   1.084       .  S
C1254      C1257   1.443       .  S
C1257      N1259   1.157       .  T
C1258      N1260   1.156       .  T
C1261      C1262   1.401       .  A
C1261      C1266   1.418       .  A
C1262      C1263   1.394       .  A
C1262      H1267   1.085       .  S
C1263      C1264   1.404       .  A
C1263      C1270   1.440       .  S
C1264      C1265   1.379       .  A
C1265      C1266   1.374       .  A
C1265      H1268   1.079       .  S
C1266      C1269   1.438       .  S
C1269      N1271   1.154       .  T
C1270      N1272   1.156       .  T
C1273      C1274   1.400       .  A
C1273      C1278   1.419       .  A
C1274      C1275   1.391       .  A
C1274      H1279   1.085       .  S
C1275      C1276   1.405       .  A
C1275      C1282   1.444       .  S
C1276      C1277   1.378       .  A
C1277      C1278   1.372       .  A
C1277      H1280   1.080       .  S
C1278      C1281   1.440       .  S
C1281      N1283   1.155       .  T
C1282      N1284   1.157       .  T
C1285      C1286   1.396       .  A
C1285      C1290   1.408       .  A
C1286      C1287   1.390       .  A
C1286      H1291   1.085       .  S
C1287      C1288   1.404       .  A
C1287      C1294   1.441   1_545  S
C1288      C1289   1.386       .  A
C1289      C1290   1.381       .  A
C1289      H1292   1.085       .  S
C1290      C1293   1.435       .  S
C1293      N1295   1.154       .  T
C1294      N1296   1.157       .  T
C1297      C1298   1.409   1_545  A
C1297      C1302   1.417       .  A
C1298      C1299   1.409       .  A
C1298      H1303   1.084       .  S
C1299      C1300   1.416   1_565  A
C1299      C1306   1.445       .  S
C1300      C1301   1.411       .  A
C1301      C1302   1.418       .  A
C1301      H1304   1.084       .  S
C1302      C1305   1.443       .  S
C1305      N1307   1.157       .  T
C1306      N1308   1.157       .  T
C1309      C1310   1.413       .  A
C1309      C1314   1.423       .  A
C1310      C1311   1.418       .  A
C1310      H1315   1.076       .  S
C1311      C1312   1.413       .  A
C1311      C1318   1.441       .  S
C1312      C1313   1.409       .  A
C1313      C1314   1.416       .  A
C1313      H1316   1.084   1_565  S
C1314      C1317   1.443       .  S
C1317      N1319   1.157   1_565  T
C1318      N1320   1.157       .  T
C1321      C1322   1.380       .  A
C1321      C1326   1.405       .  A
C1322      C1323   1.373       .  A
C1322      H1327   1.064       .  S
C1323      C1324   1.421       .  A
C1323      C1330   1.446       .  S
C1324      C1325   1.405       .  A
C1325      C1326   1.398       .  A
C1325      H1328   1.084       .  S
C1326      C1329   1.443       .  S
C1329      N1331   1.157       .  T
C1330      N1332   1.156       .  T
C1333      C1334   1.379       .  A
C1333      C1338   1.405       .  A
C1334      C1335   1.370       .  A
C1334      H1339   1.073       .  S
C1335      C1336   1.418       .  A
C1335      C1342   1.446       .  S
C1336      C1337   1.403       .  A
C1337      C1338   1.392       .  A
C1337      H1340   1.085       .  S
C1338      C1341   1.444       .  S
C1341      N1343   1.157       .  T
C1342      N1344   1.157       .  T
C1345      C1346   1.390       .  A
C1345      C1350   1.406       .  A
C1346      C1347   1.383       .  A
C1346      H1351   1.085       .  S
C1347      C1348   1.407       .  A
C1347      C1354   1.439       .  S
C1348      C1349   1.391       .  A
C1349      C1350   1.384       .  A
C1349      H1352   1.086       .  S
C1350      C1353   1.439       .  S
C1353      N1355   1.155       .  T
C1354      N1356   1.155       .  T
C1357      C1358   1.402       .  A
C1357      C1362   1.399       .  A
C1358      C1359   1.388       .  A
C1358      H1363   1.085       .  S
C1359      C1360   1.400       .  A
C1359      C1366   1.442       .  S
C1360      C1361   1.399       .  A
C1361      C1362   1.387       .  A
C1361      H1364   1.082       .  S
C1362      C1365   1.442       .  S
C1365      N1367   1.156       .  T
C1366      N1368   1.157       .  T
C1369      C1370   1.414       .  A
C1369      C1374   1.421       .  A
C1370      C1371   1.416       .  A
C1370      H1375   1.084       .  S
C1371      C1372   1.411       .  A
C1371      C1378   1.441       .  S
C1372      C1373   1.404       .  A
C1373      C1374   1.407       .  A
C1373      H1376   1.085       .  S
C1374      C1377   1.444       .  S
C1377      N1379   1.157       .  T
C1378      N1380   1.157       .  T
C1381      C1382   1.411       .  A
C1381      C1386   1.427       .  A
C1382      C1383   1.413       .  A
C1382      H1387   1.084       .  S
C1383      C1384   1.415       .  A
C1383      C1390   1.444       .  S
C1384      C1385   1.405       .  A
C1385      C1386   1.417       .  A
C1385      H1388   1.084       .  S
C1386      C1389   1.443       .  S
C1389      N1391   1.157       .  T
C1390      N1392   1.157       .  T
C1393      C1394   1.412       .  A
C1393      C1398   1.419       .  A
C1394      C1395   1.414       .  A
C1394      H1399   1.084       .  S
C1395      C1396   1.416       .  A
C1395      C1402   1.443       .  S
C1396      C1397   1.413       .  A
C1397      C1398   1.424       .  A
C1397      H1400   1.083       .  S
C1398      C1401   1.442       .  S
C1401      N1403   1.157       .  T
C1402      N1404   1.157       .  T
C1405      C1406   1.416       .  A
C1405      C1410   1.423       .  A
C1406      C1407   1.419       .  A
C1406      H1411   1.084       .  S
C1407      C1408   1.416       .  A
C1407      C1414   1.441       .  S
C1408      C1409   1.405       .  A
C1409      C1410   1.410       .  A
C1409      H1412   1.085       .  S
C1410      C1413   1.443       .  S
C1413      N1415   1.157       .  T
C1414      N1416   1.157       .  T
C1417      C1418   1.407       .  A
C1417      C1422   1.413       .  A
C1418      C1419   1.420       .  A
C1418      H1423   1.084       .  S
C1419      C1420   1.425       .  A
C1419      C1426   1.441       .  S
C1420      C1421   1.412       .  A
C1421      C1422   1.409       .  A
C1421      H1424   1.084       .  S
C1422      C1425   1.444       .  S
C1425      N1427   1.157       .  T
C1426      N1428   1.157       .  T
C1429      C1430   1.407       .  A
C1429      C1434   1.410       .  A
C1430      C1431   1.412       .  A
C1430      H1435   1.085       .  S
C1431      C1432   1.420       .  A
C1431      C1438   1.443       .  S
C1432      C1433   1.411       .  A
C1433      C1434   1.411       .  A
C1433      H1436   1.082       .  S
C1434      C1437   1.441       .  S
C1437      N1439   1.157       .  T
C1438      N1440   1.157       .  T
C1441      C1442   1.379       .  A
C1441      C1446   1.405       .  A
C1442      C1443   1.373       .  A
C1442      H1447   1.072       .  S
C1443      C1444   1.418       .  A
C1443      C1450   1.444       .  S
C1444      C1445   1.404       .  A
C1445      C1446   1.397       .  A
C1445      H1448   1.084       .  S
C1446      C1449   1.442       .  S
C1449      N1451   1.157       .  T
C1450      N1452   1.156       .  T
C1453      C1454   1.381       .  A
C1453      C1458   1.406       .  A
C1454      C1455   1.377       .  A
C1454      H1459   1.078       .  S
C1455      C1456   1.415       .  A
C1455      C1462   1.438       .  S
C1456      C1457   1.402       .  A
C1457      C1458   1.396       .  A
C1457      H1460   1.085       .  S
C1458      C1461   1.441       .  S
C1461      N1463   1.157       .  T
C1462      N1464   1.154       .  T
C1465      C1466   1.381       .  A
C1465      C1470   1.406       .  A
C1466      C1467   1.376       .  A
C1466      H1471   1.076       .  S
C1467      C1468   1.423       .  A
C1467      C1474   1.445       .  S
C1468      C1469   1.405       .  A
C1469      C1470   1.401       .  A
C1469      H1472   1.084       .  S
C1470      C1473   1.442       .  S
C1473      N1475   1.157       .  T
C1474      N1476   1.156       .  T
C1477      C1478   1.411   1_554  A
C1477      C1482   1.409       .  A
C1478      C1479   1.418       .  A
C1478      H1483   1.085       .  S
C1479      C1480   1.421   1_556  A
C1479      C1486   1.442       .  S
C1480      C1481   1.412       .  A
C1481      C1482   1.415       .  A
C1481      H1484   1.076       .  S
C1482      C1485   1.441       .  S
C1485      N1487   1.157       .  T
C1486      N1488   1.157       .  T
C1489      C1490   1.407       .  A
C1489      C1494   1.414   1_556  A
C1490      C1491   1.420       .  A
C1490      H1495   1.084       .  S
C1491      C1492   1.426       .  A
C1491      C1498   1.442       .  S
C1492      C1493   1.411       .  A
C1493      C1494   1.410   1_556  A
C1493      H1496   1.084   1_556  S
C1494      C1497   1.443       .  S
C1497      N1499   1.157       .  T
C1498      N1500   1.157       .  T
C1501      C1502   1.413       .  A
C1501      C1506   1.431       .  A
C1502      C1503   1.420       .  A
C1502      H1507   1.084       .  S
C1503      C1504   1.418       .  A
C1503      C1510   1.442       .  S
C1504      C1505   1.405       .  A
C1505      C1506   1.420       .  A
C1505      H1508   1.084       .  S
C1506      C1509   1.442       .  S
C1509      N1511   1.157       .  T
C1510      N1512   1.157       .  T
C1513      C1514   1.409       .  A
C1513      C1518   1.415       .  A
C1514      C1515   1.414       .  A
C1514      H1519   1.081       .  S
C1515      C1516   1.414       .  A
C1515      C1522   1.444       .  S
C1516      C1517   1.407       .  A
C1517      C1518   1.406       .  A
C1517      H1520   1.084       .  S
C1518      C1521   1.444       .  S
C1521      N1523   1.157       .  T
C1522      N1524   1.157       .  T
C1525      C1526   1.414       .  A
C1525      C1530   1.421       .  A
C1526      C1527   1.422       .  A
C1526      H1531   1.077       .  S
C1527      C1528   1.417       .  A
C1527      C1534   1.443       .  S
C1528      C1529   1.408       .  A
C1529      C1530   1.414       .  A
C1529      H1532   1.084       .  S
C1530      C1533   1.440       .  S
C1533      N1535   1.156       .  T
C1534      N1536   1.157       .  T
C1537      C1538   1.409       .  A
C1537      C1542   1.414       .  A
C1538      C1539   1.422       .  A
C1538      H1543   1.083       .  S
C1539      C1540   1.424       .  A
C1539      C1546   1.441       .  S
C1540      C1541   1.408       .  A
C1541      C1542   1.407       .  A
C1541      H1544   1.084       .  S
C1542      C1545   1.441       .  S
C1545      N1547   1.156       .  T
C1546      N1548   1.157       .  T
C1549      C1550   1.408       .  A
C1549      C1554   1.419       .  A
C1550      C1551   1.419       .  A
C1550      H1555   1.080       .  S
C1551      C1552   1.425       .  A
C1551      C1558   1.443       .  S
C1552      C1553   1.408       .  A
C1553      C1554   1.414       .  A
C1553      H1556   1.084       .  S
C1554      C1557   1.440       .  S
C1557      N1559   1.156       .  T
C1558      N1560   1.157       .  T
C1561      C1562   1.410       .  A
C1561      C1566   1.421       .  A
C1562      C1563   1.408       .  A
C1562      H1567   1.084       .  S
C1563      C1564   1.413       .  A
C1563      C1570   1.442       .  S
C1564      C1565   1.410       .  A
C1565      C1566   1.422       .  A
C1565      H1568   1.083       .  S
C1566      C1569   1.441       .  S
C1569      N1571   1.157       .  T
C1570      N1572   1.156       .  T
C1573      C1574   1.401       .  A
C1573      C1578   1.402       .  A
C1574      C1575   1.389       .  A
C1574      H1579   1.085       .  S
C1575      C1576   1.403       .  A
C1575      C1582   1.443       .  S
C1576      C1577   1.401       .  A
C1577      C1578   1.390       .  A
C1577      H1580   1.084       .  S
C1578      C1581   1.443       .  S
C1581      N1583   1.157       .  T
C1582      N1584   1.157       .  T
C1585      C1586   1.384       .  A
C1585      C1590   1.404       .  A
C1586      C1587   1.379       .  A
C1586      H1591   1.085       .  S
C1587      C1588   1.408       .  A
C1587      C1594   1.434       .  S
C1588      C1589   1.398       .  A
C1589      C1590   1.389       .  A
C1589      H1592   1.085       .  S
C1590      C1593   1.441       .  S
C1593      N1595   1.157       .  T
C1594      N1596   1.153       .  T
C1597      C1598   1.395       .  A
C1597      C1602   1.409       .  A
C1598      C1599   1.388       .  A
C1598      H1603   1.084       .  S
C1599      C1600   1.406       .  A
C1599      C1606   1.440   1_455  S
C1600      C1601   1.386       .  A
C1601      C1602   1.382       .  A
C1601      H1604   1.085       .  S
C1602      C1605   1.434       .  S
C1605      N1607   1.153       .  T
C1606      N1608   1.156       .  T
C1609      C1610   1.410   1_655  A
C1609      C1614   1.418       .  A
C1610      C1611   1.409       .  A
C1610      H1615   1.084       .  S
C1611      C1612   1.416   1_455  A
C1611      C1618   1.443       .  S
C1612      C1613   1.413       .  A
C1613      C1614   1.421       .  A
C1613      H1616   1.083       .  S
C1614      C1617   1.442       .  S
C1617      N1619   1.157       .  T
C1618      N1620   1.157       .  T
C1621      C1622   1.410       .  A
C1621      C1626   1.423       .  A
C1622      C1623   1.405       .  A
C1622      H1627   1.084       .  S
C1623      C1624   1.412       .  A
C1623      C1630   1.443       .  S
C1624      C1625   1.408       .  A
C1625      C1626   1.418       .  A
C1625      H1628   1.084       .  S
C1626      C1629   1.442       .  S
C1629      N1631   1.157       .  T
C1630      N1632   1.157       .  T
C1633      C1634   1.408       .  A
C1633      C1638   1.417       .  A
C1634      C1635   1.411       .  A
C1634      H1639   1.084       .  S
C1635      C1636   1.417       .  A
C1635      C1642   1.443       .  S
C1636      C1637   1.411       .  A
C1637      C1638   1.418       .  A
C1637      H1640   1.079       .  S
C1638      C1641   1.443       .  S
C1641      N1643   1.157       .  T
C1642      N1644   1.156       .  T
C1645      C1646   1.381       .  A
C1645      C1650   1.406       .  A
C1646      C1647   1.379       .  A
C1646      H1651   1.085       .  S
C1647      C1648   1.411       .  A
C1647      C1654   1.430       .  S
C1648      C1649   1.400       .  A
C1649      C1650   1.394       .  A
C1649      H1652   1.085       .  S
C1650      C1653   1.442       .  S
C1653      N1655   1.157       .  T
C1654      N1656   1.152       .  T
C1657      C1658   1.402       .  A
C1657      C1662   1.420       .  A
C1658      C1659   1.396       .  A
C1658      H1663   1.084       .  S
C1659      C1660   1.405       .  A
C1659      C1666   1.442       .  S
C1660      C1661   1.380       .  A
C1661      C1662   1.372       .  A
C1661      H1664   1.076       .  S
C1662      C1665   1.444       .  S
C1665      N1667   1.156       .  T
C1666      N1668   1.157       .  T
C1669      C1670   1.411       .  A
C1669      C1674   1.423       .  A
C1670      C1671   1.417       .  A
C1670      H1675   1.080       .  S
C1671      C1672   1.415       .  A
C1671      C1678   1.440       .  S
C1672      C1673   1.408       .  A
C1673      C1674   1.415       .  A
C1673      H1676   1.085   1_655  S
C1674      C1677   1.443       .  S
C1677      N1679   1.157       .  T
C1678      N1680   1.157       .  T
C1681      C1682   1.412       .  A
C1681      C1686   1.427       .  A
C1682      C1683   1.415       .  A
C1682      H1687   1.084       .  S
C1683      C1684   1.417       .  A
C1683      C1690   1.443   1_655  S
C1684      C1685   1.409       .  A
C1685      C1686   1.423       .  A
C1685      H1688   1.084       .  S
C1686      C1689   1.443       .  S
C1689      N1691   1.157       .  T
C1690      N1692   1.157       .  T
C1693      C1694   1.413       .  A
C1693      C1698   1.422       .  A
C1694      C1695   1.409       .  A
C1694      H1699   1.084       .  S
C1695      C1696   1.411       .  A
C1695      C1702   1.444       .  S
C1696      C1697   1.411       .  A
C1697      C1698   1.424       .  A
C1697      H1700   1.084       .  S
C1698      C1701   1.440       .  S
C1701      N1703   1.157       .  T
C1702      N1704   1.157       .  T
C1705      C1706   1.423       .  A
C1705      C1710   1.422       .  A
C1706      C1707   1.429       .  A
C1706      H1711   1.082       .  S
C1707      C1708   1.427       .  A
C1707      C1714   1.440       .  S
C1708      C1709   1.401       .  A
C1709      C1710   1.407       .  A
C1709      H1712   1.085       .  S
C1710      C1713   1.445       .  S
C1713      N1715   1.158       .  T
C1714      N1716   1.157       .  T
C1717      C1718   1.402       .  A
C1717      C1722   1.419       .  A
C1718      C1719   1.417       .  A
C1718      H1723   1.086       .  S
C1719      C1720   1.430       .  A
C1719      C1726   1.436       .  S
C1720      C1721   1.423       .  A
C1721      C1722   1.424       .  A
C1721      H1724   1.083       .  S
C1722      C1725   1.442       .  S
C1725      N1727   1.157       .  T
C1726      N1728   1.157       .  T
C1729      C1730   1.415       .  A
C1729      C1734   1.418       .  A
C1730      C1731   1.414       .  A
C1730      H1735   1.084       .  S
C1731      C1732   1.413       .  A
C1731      C1738   1.443       .  S
C1732      C1733   1.413       .  A
C1733      C1734   1.412       .  A
C1733      H1736   1.083       .  S
C1734      C1737   1.440       .  S
C1737      N1739   1.156       .  T
C1738      N1740   1.157       .  T
C1741      C1742   1.412       .  A
C1741      C1746   1.415       .  A
C1742      C1743   1.419       .  A
C1742      H1747   1.084       .  S
C1743      C1744   1.419       .  A
C1743      C1750   1.443       .  S
C1744      C1745   1.408       .  A
C1745      C1746   1.406       .  A
C1745      H1748   1.084       .  S
C1746      C1749   1.444       .  S
C1749      N1751   1.157       .  T
C1750      N1752   1.157       .  T
C1753      C1754   1.412       .  A
C1753      C1758   1.423       .  A
C1754      C1755   1.420       .  A
C1754      H1759   1.084       .  S
C1755      C1756   1.419       .  A
C1755      C1762   1.443       .  S
C1756      C1757   1.409       .  A
C1757      C1758   1.421       .  A
C1757      H1760   1.081       .  S
C1758      C1761   1.444       .  S
C1761      N1763   1.157       .  T
C1762      N1764   1.157       .  T
C1765      C1766   1.399       .  A
C1765      C1770   1.399       .  A
C1766      C1767   1.383       .  A
C1766      H1771   1.083       .  S
C1767      C1768   1.398       .  A
C1767      C1774   1.443       .  S
C1768      C1769   1.399       .  A
C1769      C1770   1.382       .  A
C1769      H1772   1.083       .  S
C1770      C1773   1.444       .  S
C1773      N1775   1.157       .  T
C1774      N1776   1.157       .  T
C1777      C1778   1.391       .  A
C1777      C1782   1.408       .  A
C1778      C1779   1.386       .  A
C1778      H1783   1.085       .  S
C1779      C1780   1.407       .  A
C1779      C1786   1.439   1_556  S
C1780      C1781   1.390       .  A
C1781      C1782   1.386       .  A
C1781      H1784   1.085       .  S
C1782      C1785   1.437       .  S
C1785      N1787   1.155       .  T
C1786      N1788   1.156       .  T
C1789      C1790   1.399       .  A
C1789      C1794   1.401       .  A
C1790      C1791   1.384       .  A
C1790      H1795   1.083       .  S
C1791      C1792   1.399       .  A
C1791      C1798   1.442       .  S
C1792      C1793   1.401       .  A
C1793      C1794   1.386       .  A
C1793      H1796   1.085       .  S
C1794      C1797   1.444       .  S
C1797      N1799   1.157       .  T
C1798      N1800   1.157       .  T
C1801      C1802   1.412       .  A
C1801      C1806   1.426       .  A
C1802      C1803   1.413       .  A
C1802      H1807   1.084       .  S
C1803      C1804   1.414       .  A
C1803      C1810   1.442   1_556  S
C1804      C1805   1.408       .  A
C1805      C1806   1.421       .  A
C1805      H1808   1.084       .  S
C1806      C1809   1.442       .  S
C1809      N1811   1.157       .  T
C1810      N1812   1.157       .  T
C1813      C1814   1.407       .  A
C1813      C1818   1.416       .  A
C1814      C1815   1.415       .  A
C1814      H1819   1.085       .  S
C1815      C1816   1.424       .  A
C1815      C1822   1.443       .  S
C1816      C1817   1.410       .  A
C1817      C1818   1.418       .  A
C1817      H1820   1.081       .  S
C1818      C1821   1.440       .  S
C1821      N1823   1.157       .  T
C1822      N1824   1.157       .  T
C1825      C1826   1.414       .  A
C1825      C1830   1.424       .  A
C1826      C1827   1.423       .  A
C1826      H1831   1.083       .  S
C1827      C1828   1.420       .  A
C1827      C1834   1.440       .  S
C1828      C1829   1.410       .  A
C1829      C1830   1.419       .  A
C1829      H1832   1.085   1_556  S
C1830      C1833   1.443       .  S
C1833      N1835   1.157   1_556  T
C1834      N1836   1.157       .  T
C1837      C1838   1.405       .  A
C1837      C1842   1.411       .  A
C1838      C1839   1.411       .  A
C1838      H1843   1.085       .  S
C1839      C1840   1.423       .  A
C1839      C1846   1.443       .  S
C1840      C1841   1.413       .  A
C1841      C1842   1.417       .  A
C1841      H1844   1.076       .  S
C1842      C1845   1.442       .  S
C1845      N1847   1.157       .  T
C1846      N1848   1.157       .  T
C1849      C1850   1.415       .  A
C1849      C1854   1.424       .  A
C1850      C1851   1.420       .  A
C1850      H1855   1.084       .  S
C1851      C1852   1.414       .  A
C1851      C1858   1.441       .  S
C1852      C1853   1.403       .  A
C1853      C1854   1.409       .  A
C1853      H1856   1.085       .  S
C1854      C1857   1.444       .  S
C1857      N1859   1.157       .  T
C1858      N1860   1.157       .  T
C1861      C1862   1.410       .  A
C1861      C1866   1.415       .  A
C1862      C1863   1.417       .  A
C1862      H1867   1.083       .  S
C1863      C1864   1.417       .  A
C1863      C1870   1.441       .  S
C1864      C1865   1.409       .  A
C1865      C1866   1.410       .  A
C1865      H1868   1.084       .  S
C1866      C1869   1.444       .  S
C1869      N1871   1.157       .  T
C1870      N1872   1.156       .  T
C1873      C1874   1.401       .  A
C1873      C1878   1.400       .  A
C1874      C1875   1.387       .  A
C1874      H1879   1.085       .  S
C1875      C1876   1.401       .  A
C1875      C1882   1.442       .  S
C1876      C1877   1.401       .  A
C1877      C1878   1.388       .  A
C1877      H1880   1.083       .  S
C1878      C1881   1.443       .  S
C1881      N1883   1.157       .  T
C1882      N1884   1.157       .  T
C1885      C1886   1.404       .  A
C1885      C1890   1.415       .  A
C1886      C1887   1.398       .  A
C1886      H1891   1.085       .  S
C1887      C1888   1.406       .  A
C1887      C1894   1.443       .  S
C1888      C1889   1.383       .  A
C1889      C1890   1.377       .  A
C1889      H1892   1.074       .  S
C1890      C1893   1.442       .  S
C1893      N1895   1.156       .  T
C1894      N1896   1.157       .  T
C1897      C1898   1.404       .  A
C1897      C1902   1.419       .  A
C1898      C1899   1.400       .  A
C1898      H1903   1.085       .  S
C1899      C1900   1.407       .  A
C1899      C1906   1.441       .  S
C1900      C1901   1.382       .  A
C1901      C1902   1.377       .  A
C1901      H1904   1.075       .  S
C1902      C1905   1.442       .  S
C1905      N1907   1.156       .  T
C1906      N1908   1.157       .  T
C1909      C1910   1.408       .  A
C1909      C1914   1.417       .  A
C1910      C1911   1.415       .  A
C1910      H1915   1.085       .  S
C1911      C1912   1.422       .  A
C1911      C1918   1.443       .  S
C1912      C1913   1.412       .  A
C1913      C1914   1.415       .  A
C1913      H1916   1.084       .  S
C1914      C1917   1.439       .  S
C1917      N1919   1.157       .  T
C1918      N1920   1.157       .  T
C1921      C1922   1.411       .  A
C1921      C1926   1.419       .  A
C1922      C1923   1.415       .  A
C1922      H1927   1.084       .  S
C1923      C1924   1.415       .  A
C1923      C1930   1.441       .  S
C1924      C1925   1.408       .  A
C1925      C1926   1.409       .  A
C1925      H1928   1.085       .  S
C1926      C1929   1.444       .  S
C1929      N1931   1.157       .  T
C1930      N1932   1.157       .  T
C1933      C1934   1.418       .  A
C1933      C1938   1.420       .  A
C1934      C1935   1.415       .  A
C1934      H1939   1.084       .  S
C1935      C1936   1.412       .  A
C1935      C1942   1.442       .  S
C1936      C1937   1.409       .  A
C1937      C1938   1.416       .  A
C1937      H1940   1.085       .  S
C1938      C1941   1.442       .  S
C1941      N1943   1.157       .  T
C1942      N1944   1.157       .  T
C1945      C1946   1.408       .  A
C1945      C1950   1.414       .  A
C1946      C1947   1.421       .  A
C1946      H1951   1.083       .  S
C1947      C1948   1.423       .  A
C1947      C1954   1.440       .  S
C1948      C1949   1.410       .  A
C1949      C1950   1.410       .  A
C1949      H1952   1.084       .  S
C1950      C1953   1.441       .  S
C1953      N1955   1.156       .  T
C1954      N1956   1.157       .  T
C1957      C1958   1.406       .  A
C1957      C1962   1.415       .  A
C1958      C1959   1.418       .  A
C1958      H1963   1.083       .  S
C1959      C1960   1.427       .  A
C1959      C1966   1.441       .  S
C1960      C1961   1.410       .  A
C1961      C1962   1.410       .  A
C1961      H1964   1.084       .  S
C1962      C1965   1.442       .  S
C1965      N1967   1.157       .  T
C1966      N1968   1.157       .  T
C1969      C1970   1.410       .  A
C1969      C1974   1.423       .  A
C1970      C1971   1.407       .  A
C1970      H1975   1.084       .  S
C1971      C1972   1.414       .  A
C1971      C1978   1.445       .  S
C1972      C1973   1.407       .  A
C1973      C1974   1.419       .  A
C1973      H1976   1.084       .  S
C1974      C1977   1.442       .  S
C1977      N1979   1.157       .  T
C1978      N1980   1.157       .  T
C1981      C1982   1.407       .  A
C1981      C1986   1.418       .  A
C1982      C1983   1.415       .  A
C1982      H1987   1.085       .  S
C1983      C1984   1.424       .  A
C1983      C1990   1.443       .  S
C1984      C1985   1.414       .  A
C1985      C1986   1.421       .  A
C1985      H1988   1.084       .  S
C1986      C1989   1.440       .  S
C1989      N1991   1.157       .  T
C1990      N1992   1.157       .  T
C1993      C1994   1.403       .  A
C1993      C1998   1.418       .  A
C1994      C1995   1.395       .  A
C1994      H1999   1.085       .  S
C1995      C1996   1.404       .  A
C1995      C2002   1.441   1_554  S
C1996      C1997   1.381       .  A
C1997      C1998   1.375       .  A
C1997      H2000   1.076       .  S
C1998      C2001   1.440       .  S
C2001      N2003   1.155       .  T
C2002      N2004   1.157       .  T
C2005      C2006   1.397       .  A
C2005      C2010   1.401       .  A
C2006      C2007   1.384       .  A
C2006      H2011   1.081   1_455  S
C2007      C2008   1.399       .  A
C2007      C2014   1.442       .  S
C2008      C2009   1.402       .  A
C2009      C2010   1.388       .  A
C2009      H2012   1.085       .  S
C2010      C2013   1.442       .  S
C2013      N2015   1.157       .  T
C2014      N2016   1.156   1_455  T
C2017      C2018   1.413       .  A
C2017      C2022   1.424       .  A
C2018      C2019   1.410       .  A
C2018      H2023   1.084       .  S
C2019      C2020   1.413       .  A
C2019      C2026   1.444   1_654  S
C2020      C2021   1.409       .  A
C2021      C2022   1.421       .  A
C2021      H2024   1.084       .  S
C2022      C2025   1.441       .  S
C2025      N2027   1.157       .  T
C2026      N2028   1.157       .  T
C2029      C2030   1.408       .  A
C2029      C2034   1.413       .  A
C2030      C2031   1.417       .  A
C2030      H2035   1.084       .  S
C2031      C2032   1.421       .  A
C2031      C2038   1.443       .  S
C2032      C2033   1.411       .  A
C2033      C2034   1.409       .  A
C2033      H2036   1.084       .  S
C2034      C2037   1.444       .  S
C2037      N2039   1.157       .  T
C2038      N2040   1.157       .  T
C2041      C2042   1.405       .  A
C2041      C2046   1.417       .  A
C2042      C2043   1.404       .  A
C2042      H2047   1.084       .  S
C2043      C2044   1.415       .  A
C2043      C2050   1.441       .  S
C2044      C2045   1.408       .  A
C2045      C2046   1.412       .  A
C2045      H2048   1.080       .  S
C2046      C2049   1.444       .  S
C2049      N2051   1.157       .  T
C2050      N2052   1.156       .  T
C2053      C2054   1.389       .  A
C2053      C2058   1.410       .  A
C2054      C2055   1.385       .  A
C2054      H2059   1.086       .  S
C2055      C2056   1.408       .  A
C2055      C2062   1.436       .  S
C2056      C2057   1.391       .  A
C2057      C2058   1.387       .  A
C2057      H2060   1.086       .  S
C2058      C2061   1.439   1_554  S
C2061      N2063   1.156       .  T
C2062      N2064   1.154       .  T
C2065      C2066   1.387       .  A
C2065      C2070   1.407       .  A
C2066      C2067   1.382       .  A
C2066      H2071   1.085       .  S
C2067      C2068   1.410       .  A
C2067      C2074   1.435       .  S
C2068      C2069   1.392       .  A
C2069      C2070   1.388       .  A
C2069      H2072   1.084       .  S
C2070      C2073   1.437   1_556  S
C2073      N2075   1.155       .  T
C2074      N2076   1.154       .  T
C2077      C2078   1.387       .  A
C2077      C2082   1.406       .  A
C2078      C2079   1.381       .  A
C2078      H2083   1.085       .  S
C2079      C2080   1.409       .  A
C2079      C2086   1.435   1_565  S
C2080      C2081   1.393       .  A
C2081      C2082   1.386       .  A
C2081      H2084   1.086       .  S
C2082      C2085   1.438       .  S
C2085      N2087   1.155       .  T
C2086      N2088   1.154       .  T
C2089      C2090   1.402       .  A
C2089      C2094   1.419       .  A
C2090      C2091   1.395       .  A
C2090      H2095   1.085       .  S
C2091      C2092   1.406       .  A
C2091      C2098   1.444   1_565  S
C2092      C2093   1.381       .  A
C2093      C2094   1.376       .  A
C2093      H2096   1.081       .  S
C2094      C2097   1.441       .  S
C2097      N2099   1.156       .  T
C2098      N2100   1.157       .  T
C2101      C2102   1.412       .  A
C2101      C2106   1.428       .  A
C2102      C2103   1.416       .  A
C2102      H2107   1.084       .  S
C2103      C2104   1.416       .  A
C2103      C2110   1.443       .  S
C2104      C2105   1.406       .  A
C2105      C2106   1.418       .  A
C2105      H2108   1.083       .  S
C2106      C2109   1.443       .  S
C2109      N2111   1.157       .  T
C2110      N2112   1.157       .  T
C2113      C2114   1.409       .  A
C2113      C2118   1.418       .  A
C2114      C2115   1.413       .  A
C2114      H2119   1.084       .  S
C2115      C2116   1.418       .  A
C2115      C2122   1.440       .  S
C2116      C2117   1.414       .  A
C2117      C2118   1.423       .  A
C2117      H2120   1.079       .  S
C2118      C2121   1.443       .  S
C2121      N2123   1.157       .  T
C2122      N2124   1.156       .  T
C2125      C2126   1.412   1_554  A
C2125      C2130   1.415       .  A
C2126      C2127   1.419       .  A
C2126      H2131   1.084       .  S
C2127      C2128   1.419   1_556  A
C2127      C2134   1.442   1_565  S
C2128      C2129   1.410       .  A
C2129      C2130   1.417       .  A
C2129      H2132   1.076       .  S
C2130      C2133   1.439       .  S
C2133      N2135   1.156       .  T
C2134      N2136   1.157       .  T
C2137      C2138   1.395       .  A
C2137      C2142   1.407       .  A
C2138      C2139   1.390       .  A
C2138      H2143   1.085       .  S
C2139      C2140   1.404       .  A
C2139      C2146   1.441       .  S
C2140      C2141   1.387       .  A
C2141      C2142   1.383       .  A
C2141      H2144   1.085       .  S
C2142      C2145   1.435   1_455  S
C2145      N2147   1.155       .  T
C2146      N2148   1.157       .  T
C2149      C2150   1.403       .  A
C2149      C2154   1.416       .  A
C2150      C2151   1.396       .  A
C2150      H2155   1.085       .  S
C2151      C2152   1.405       .  A
C2151      C2158   1.443       .  S
C2152      C2153   1.383       .  A
C2153      C2154   1.378       .  A
C2153      H2156   1.078       .  S
C2154      C2157   1.440       .  S
C2157      N2159   1.155       .  T
C2158      N2160   1.157       .  T
C2161      C2162   1.394       .  A
C2161      C2166   1.409       .  A
C2162      C2163   1.389       .  A
C2162      H2167   1.085       .  S
C2163      C2164   1.407       .  A
C2163      C2170   1.440       .  S
C2164      C2165   1.391       .  A
C2165      C2166   1.387       .  A
C2165      H2168   1.085       .  S
C2166      C2169   1.440       .  S
C2169      N2171   1.156       .  T
C2170      N2172   1.156       .  T
C2173      C2174   1.403       .  A
C2173      C2178   1.423       .  A
C2174      C2175   1.398       .  A
C2174      H2179   1.084       .  S
C2175      C2176   1.407       .  A
C2175      C2182   1.444       .  S
C2176      C2177   1.380       .  A
C2177      C2178   1.372       .  A
C2177      H2180   1.076       .  S
C2178      C2181   1.446       .  S
C2181      N2183   1.157       .  T
C2182      N2184   1.157       .  T
C2185      C2186   1.407       .  A
C2185      C2190   1.414       .  A
C2186      C2187   1.413       .  A
C2186      H2191   1.084       .  S
C2187      C2188   1.422       .  A
C2187      C2194   1.444       .  S
C2188      C2189   1.413       .  A
C2189      C2190   1.418       .  A
C2189      H2192   1.082       .  S
C2190      C2193   1.441       .  S
C2193      N2195   1.157       .  T
C2194      N2196   1.158       .  T
C2197      C2198   1.413       .  A
C2197      C2202   1.430       .  A
C2198      C2199   1.421       .  A
C2198      H2203   1.084   1_455  S
C2199      C2200   1.419       .  A
C2199      C2206   1.443   1_455  S
C2200      C2201   1.406       .  A
C2201      C2202   1.420       .  A
C2201      H2204   1.084       .  S
C2202      C2205   1.443       .  S
C2205      N2207   1.157       .  T
C2206      N2208   1.157       .  T
C2209      C2210   1.412       .  A
C2209      C2214   1.427       .  A
C2210      C2211   1.415       .  A
C2210      H2215   1.084       .  S
C2211      C2212   1.417       .  A
C2211      C2218   1.443       .  S
C2212      C2213   1.406       .  A
C2213      C2214   1.419       .  A
C2213      H2216   1.084       .  S
C2214      C2217   1.442       .  S
C2217      N2219   1.157       .  T
C2218      N2220   1.157       .  T
C2221      C2222   1.406       .  A
C2221      C2226   1.415       .  A
C2222      C2223   1.413       .  A
C2222      H2227   1.084       .  S
C2223      C2224   1.425       .  A
C2223      C2230   1.444       .  S
C2224      C2225   1.416       .  A
C2225      C2226   1.424       .  A
C2225      H2228   1.084       .  S
C2226      C2229   1.441       .  S
C2229      N2231   1.157       .  T
C2230      N2232   1.158       .  T
C2233      C2234   1.415       .  A
C2233      C2238   1.426       .  A
C2234      C2235   1.423       .  A
C2234      H2239   1.079       .  S
C2235      C2236   1.415       .  A
C2235      C2242   1.442       .  S
C2236      C2237   1.406       .  A
C2237      C2238   1.416       .  A
C2237      H2240   1.084   1_545  S
C2238      C2241   1.443       .  S
C2241      N2243   1.157       .  T
C2242      N2244   1.157       .  T
C2245      C2246   1.412       .  A
C2245      C2250   1.422   1_565  A
C2246      C2247   1.414       .  A
C2246      H2251   1.082       .  S
C2247      C2248   1.411       .  A
C2247      C2254   1.442       .  S
C2248      C2249   1.406   1_565  A
C2249      C2250   1.411       .  A
C2249      H2252   1.085       .  S
C2250      C2253   1.443       .  S
C2253      N2255   1.157       .  T
C2254      N2256   1.157       .  T
C2257      C2258   1.410       .  A
C2257      C2262   1.424   1_455  A
C2258      C2259   1.418       .  A
C2258      H2263   1.084       .  S
C2259      C2260   1.415       .  A
C2259      C2266   1.441       .  S
C2260      C2261   1.402   1_455  A
C2261      C2262   1.407       .  A
C2261      H2264   1.085       .  S
C2262      C2265   1.444       .  S
C2265      N2267   1.157       .  T
C2266      N2268   1.157       .  T
C2269      C2270   1.404   1_655  A
C2269      C2274   1.412       .  A
C2270      C2271   1.411       .  A
C2270      H2275   1.085       .  S
C2271      C2272   1.424   1_455  A
C2271      C2278   1.443       .  S
C2272      C2273   1.412       .  A
C2273      C2274   1.417       .  A
C2273      H2276   1.076       .  S
C2274      C2277   1.442       .  S
C2277      N2279   1.157       .  T
C2278      N2280   1.157       .  T
C2281      C2282   1.387       .  A
C2281      C2286   1.403       .  A
C2282      C2283   1.385       .  A
C2282      H2287   1.085       .  S
C2283      C2284   1.410       .  A
C2283      C2290   1.434   1_655  S
C2284      C2285   1.397       .  A
C2285      C2286   1.389       .  A
C2285      H2288   1.085       .  S
C2286      C2289   1.443       .  S
C2289      N2291   1.157       .  T
C2290      N2292   1.154       .  T
C2293      C2294   1.384       .  A
C2293      C2298   1.412   1_545  A
C2294      C2295   1.376       .  A
C2294      H2299   1.084       .  S
C2295      C2296   1.419       .  A
C2295      C2302   1.442       .  S
C2296      C2297   1.404       .  A
C2297      C2298   1.402   1_545  A
C2297      H2300   1.084       .  S
C2298      C2301   1.445       .  S
C2301      N2303   1.158       .  T
C2302      N2304   1.156       .  T
C2305      C2306   1.405       .  A
C2305      C2310   1.421       .  A
C2306      C2307   1.401       .  A
C2306      H2311   1.084       .  S
C2307      C2308   1.407       .  A
C2307      C2314   1.443       .  S
C2308      C2309   1.380       .  A
C2309      C2310   1.371       .  A
C2309      H2312   1.073       .  S
C2310      C2313   1.446       .  S
C2313      N2315   1.156       .  T
C2314      N2316   1.157       .  T
C2317      C2318   1.385       .  A
C2317      C2322   1.406       .  A
C2318      C2319   1.378       .  A
C2318      H2323   1.086       .  S
C2319      C2320   1.422       .  A
C2319      C2326   1.444       .  S
C2320      C2321   1.403       .  A
C2321      C2322   1.394       .  A
C2321      H2324   1.084       .  S
C2322      C2325   1.446       .  S
C2325      N2327   1.157       .  T
C2326      N2328   1.156       .  T
C2329      C2330   1.410       .  A
C2329      C2334   1.428       .  A
C2330      C2331   1.418       .  A
C2330      H2335   1.084       .  S
C2331      C2332   1.419       .  A
C2331      C2338   1.440       .  S
C2332      C2333   1.400       .  A
C2333      C2334   1.406       .  A
C2333      H2336   1.085       .  S
C2334      C2337   1.445       .  S
C2337      N2339   1.158       .  T
C2338      N2340   1.157       .  T
C2341      C2342   1.406       .  A
C2341      C2346   1.413       .  A
C2342      C2343   1.411       .  A
C2342      H2347   1.083       .  S
C2343      C2344   1.418       .  A
C2343      C2350   1.440       .  S
C2344      C2345   1.408       .  A
C2345      C2346   1.407       .  A
C2345      H2348   1.084       .  S
C2346      C2349   1.444       .  S
C2349      N2351   1.157       .  T
C2350      N2352   1.157       .  T
C2353      C2354   1.416       .  A
C2353      C2358   1.422       .  A
C2354      C2355   1.419       .  A
C2354      H2359   1.084       .  S
C2355      C2356   1.414       .  A
C2355      C2362   1.442       .  S
C2356      C2357   1.406       .  A
C2357      C2358   1.412       .  A
C2357      H2360   1.085   1_645  S
C2358      C2361   1.443   1_545  S
C2361      N2363   1.157   1_655  T
C2362      N2364   1.157       .  T
C2365      C2366   1.393       .  A
C2365      C2370   1.408       .  A
C2366      C2367   1.391       .  A
C2366      H2371   1.085       .  S
C2367      C2368   1.409       .  A
C2367      C2374   1.437   1_556  S
C2368      C2369   1.391       .  A
C2369      C2370   1.388       .  A
C2369      H2372   1.085       .  S
C2370      C2373   1.437       .  S
C2373      N2375   1.155       .  T
C2374      N2376   1.156       .  T
C2377      C2378   1.382       .  A
C2377      C2382   1.406       .  A
C2378      C2379   1.375       .  A
C2378      H2383   1.079       .  S
C2379      C2380   1.417       .  A
C2379      C2386   1.440       .  S
C2380      C2381   1.402       .  A
C2381      C2382   1.395       .  A
C2381      H2384   1.085       .  S
C2382      C2385   1.444   1_455  S
C2385      N2387   1.157       .  T
C2386      N2388   1.155       .  T
C2389      C2390   1.384       .  A
C2389      C2394   1.406       .  A
C2390      C2391   1.378       .  A
C2390      H2395   1.086       .  S
C2391      C2392   1.407       .  A
C2391      C2398   1.431       .  S
C2392      C2393   1.394       .  A
C2393      C2394   1.385       .  A
C2393      H2396   1.085       .  S
C2394      C2397   1.440   1_655  S
C2397      N2399   1.156       .  T
C2398      N2400   1.152       .  T
C2401      C2402   1.405       .  A
C2401      C2406   1.402       .  A
C2402      C2403   1.390       .  A
C2402      H2407   1.085       .  S
C2403      C2404   1.396       .  A
C2403      C2410   1.443       .  S
C2404      C2405   1.398       .  A
C2405      C2406   1.387       .  A
C2405      H2408   1.083   1_556  S
C2406      C2409   1.443       .  S
C2409      N2411   1.157       .  T
C2410      N2412   1.157       .  T
C2413      C2414   1.413       .  A
C2413      C2418   1.423       .  A
C2414      C2415   1.419       .  A
C2414      H2419   1.079       .  S
C2415      C2416   1.412       .  A
C2415      C2422   1.442       .  S
C2416      C2417   1.406       .  A
C2417      C2418   1.414       .  A
C2417      H2420   1.085       .  S
C2418      C2421   1.443       .  S
C2421      N2423   1.157       .  T
C2422      N2424   1.157       .  T
C2425      C2426   1.407   1_455  A
C2425      C2430   1.419       .  A
C2426      C2427   1.411       .  A
C2426      H2431   1.084       .  S
C2427      C2428   1.418   1_655  A
C2427      C2434   1.441       .  S
C2428      C2429   1.410       .  A
C2429      C2430   1.419       .  A
C2429      H2432   1.083       .  S
C2430      C2433   1.441       .  S
C2433      N2435   1.156       .  T
C2434      N2436   1.156   1_556  T
C2437      C2438   1.415       .  A
C2437      C2442   1.418       .  A
C2438      C2439   1.421       .  A
C2438      H2443   1.084       .  S
C2439      C2440   1.420       .  A
C2439      C2446   1.443       .  S
C2440      C2441   1.421       .  A
C2441      C2442   1.428       .  A
C2441      H2444   1.079       .  S
C2442      C2445   1.442       .  S
C2445      N2447   1.157       .  T
C2446      N2448   1.157       .  T
C2449      C2450   1.411   1_554  A
C2449      C2454   1.424       .  A
C2450      C2451   1.410       .  A
C2450      H2455   1.084       .  S
C2451      C2452   1.413   1_556  A
C2451      C2458   1.443   1_545  S
C2452      C2453   1.407       .  A
C2453      C2454   1.417       .  A
C2453      H2456   1.084       .  S
C2454      C2457   1.442       .  S
C2457      N2459   1.157       .  T
C2458      N2460   1.157       .  T
C2461      C2462   1.400       .  A
C2461      C2466   1.417       .  A
C2462      C2463   1.405       .  A
C2462      H2467   1.085   1_445  S
C2463      C2464   1.427       .  A
C2463      C2470   1.445   1_545  S
C2464      C2465   1.414       .  A
C2465      C2466   1.422       .  A
C2465      H2468   1.084       .  S
C2466      C2469   1.441       .  S
C2469      N2471   1.157       .  T
C2470      N2472   1.157       .  T
C2473      C2474   1.412       .  A
C2473      C2478   1.432       .  A
C2474      C2475   1.420   1_455  A
C2474      H2479   1.084   1_455  S
C2475      C2476   1.419   1_655  A
C2475      C2482   1.442   1_554  S
C2476      C2477   1.405       .  A
C2477      C2478   1.419       .  A
C2477      H2480   1.084       .  S
C2478      C2481   1.443       .  S
C2481      N2483   1.157       .  T
C2482      N2484   1.157       .  T
C2485      C2486   1.404   1_556  A
C2485      C2490   1.415       .  A
C2486      C2487   1.406       .  A
C2486      H2491   1.085       .  S
C2487      C2488   1.422   1_554  A
C2487      C2494   1.445       .  S
C2488      C2489   1.410       .  A
C2489      C2490   1.416       .  A
C2489      H2492   1.084       .  S
C2490      C2493   1.441       .  S
C2493      N2495   1.157       .  T
C2494      N2496   1.157       .  T
C2497      C2498   1.405   1_565  A
C2497      C2502   1.413       .  A
C2498      C2499   1.410       .  A
C2498      H2503   1.086       .  S
C2499      C2500   1.429   1_545  A
C2499      C2506   1.446       .  S
C2500      C2501   1.409       .  A
C2501      C2502   1.416       .  A
C2501      H2504   1.084       .  S
C2502      C2505   1.439       .  S
C2505      N2507   1.157       .  T
C2506      N2508   1.158       .  T
C2509      C2510   1.413       .  A
C2509      C2514   1.425   1_655  A
C2510      C2511   1.419       .  A
C2510      H2515   1.084       .  S
C2511      C2512   1.415       .  A
C2511      C2518   1.441       .  S
C2512      C2513   1.403   1_655  A
C2513      C2514   1.410       .  A
C2513      H2516   1.085       .  S
C2514      C2517   1.444       .  S
C2517      N2519   1.157       .  T
C2518      N2520   1.157       .  T
