geometry optimzed in LAMMPS
_audit_creation_date              2020-11-30 
_audit_creation_method            'lammps2cif' 
_symmetry_space_group_name_H-M    'P1' 
_symmetry_Int_Tables_number       1 
_symmetry_cell_setting            triclinic 
loop_ 
_symmetry_equiv_pos_as_xyz 
  x,y,z 
_cell_length_a                    53.21880824 
_cell_length_b                    52.83458104647178 
_cell_length_c                    52.63684619866994 
_cell_angle_alpha                 89.97948363788959 
_cell_angle_beta                  90.28879186603183 
_cell_angle_gamma                 89.9475278555456 
loop_ 
_atom_site_label 
_atom_site_type_symbol 
_atom_site_fract_x 
_atom_site_fract_y 
_atom_site_fract_z 
_atom_site_charge 
O1          O  0.73626239  0.78616726  0.71981194    -0.88800
C2          C  0.67821510  0.73911656  0.73688552     0.87200
Mg3        Mg  0.76666959  0.77559814  0.69589992     1.58100
O4          O  0.72260168  0.74708300  0.78551979    -0.88500
O5          O  0.73113411  0.80002275  0.75867694    -0.75900
C6          C  0.79703102  0.65862246  0.73282936     0.92300
O7          O  0.71142756  0.74324532  0.68499584    -0.75700
O8          O  0.79946414  0.67377669  0.71422495    -0.83200
Mg9        Mg  0.69909602  0.77921988  0.70585705     1.58000
C10         C  0.75002938  0.68622520  0.82588503     0.92200
O11         O  0.68395776  0.81630434  0.72297318    -0.81400
H12         H  0.74254338  0.76906299  0.80908531    -0.06800
C13         C  0.72996199  0.68469984  0.74101142     0.87100
O14         O  0.79041287  0.76499877  0.73094942    -0.76000
O15         O  0.69155638  0.75813478  0.73940881    -0.88700
O16         O  0.72969283  0.69826492  0.82104501    -0.81500
C17         C  0.65790554  0.73921617  0.80609576     0.92300
C18         C  0.67335102  0.82406523  0.74317870     0.92200
Mg19       Mg  0.77344090  0.70324997  0.77268003     1.58000
O20         O  0.78625807  0.66549122  0.75337492    -0.81500
O21         O  0.76238497  0.73975829  0.79424347    -0.75700
O22         O  0.66351450  0.75828384  0.79241773    -0.81500
O23         O  0.70665626  0.80027720  0.66992697    -0.83200
O24         O  0.81089100  0.72768915  0.68834255    -0.81600
C25         C  0.74228497  0.75259363  0.79690295     0.86600
O26         O  0.78141544  0.72546954  0.74004827    -0.88700
O27         O  0.73591441  0.69831750  0.75925920    -0.88800
O28         O  0.74123809  0.68588404  0.71972094    -0.75900
Mg29       Mg  0.69793895  0.77744648  0.77461853     1.58000
O30         O  0.67355311  0.72131452  0.81003748    -0.83200
H31         H  0.75664088  0.81458394  0.73417557    -0.07000
O32         O  0.75150741  0.73820851  0.69350892    -0.88500
H33         H  0.73288754  0.71555078  0.66956144    -0.06800
H34         H  0.80748006  0.74509678  0.75914388    -0.07000
C35         C  0.73223313  0.73187687  0.68191793     0.86600
C36         C  0.74176318  0.80099647  0.73714531     0.87200
C37         C  0.79385028  0.74491853  0.74384504     0.87200
H38         H  0.71436114  0.67177973  0.74305055    -0.06900
O39         O  0.68130874  0.71952600  0.75060287    -0.76000
Mg40       Mg  0.77553770  0.70777396  0.70418825     1.58000
H41         H  0.66397474  0.73890480  0.72216680    -0.07000
C42         C  0.72452849  0.79925242  0.65405166     0.92200
O43         O  0.80069488  0.76547436  0.67252914    -0.83200
C44         C  0.81669751  0.74796728  0.67657492     0.92300
O45         O  0.67301869  0.81066108  0.76329588    -0.83200
Mg46       Mg  0.70661714  0.70984714  0.78488391     1.58200
O47         O  0.74555271  0.78877844  0.65941752    -0.81500
O48         O  0.76605981  0.68155377  0.80867126    -0.83200
C49         C  0.63452346  0.01452002  0.73645882     0.86000
C50         C  0.61919353  0.01160088  0.76073118    -0.54200
C51         C  0.60260239  0.99181898  0.76083170     0.09000
C52         C  0.60317413  0.97631290  0.73584357     0.19900
C53         C  0.64734496  0.98854154  0.73286482    -0.54900
C54         C  0.63092471  0.96860167  0.73266640     0.09100
C55         C  0.61513003  0.01563771  0.71500758    -0.54500
C56         C  0.59876652  0.99579199  0.71426910     0.09600
H57         H  0.62218258  0.02394852  0.77694587     0.14100
H58         H  0.58991289  0.96011053  0.73534375    -0.00100
H59         H  0.66734715  0.98568216  0.73053263     0.14500
H60         H  0.61562014  0.03016838  0.70039855     0.14200
O61         O  0.77227825  0.27030746  0.76416534    -0.88800
C62         C  0.77941613  0.25600114  0.68887009     0.87200
Mg63       Mg  0.77123672  0.24086243  0.79215321     1.58100
O64         O  0.71896737  0.27323168  0.70844165    -0.88500
O65         O  0.74874922  0.30198967  0.75152678    -0.75900
C66         C  0.69299981  0.15431394  0.74548824     0.92300
O67         O  0.80298870  0.22565319  0.73721832    -0.75700
O68         O  0.71299986  0.15520105  0.75885415    -0.83200
Mg69       Mg  0.80274941  0.26911060  0.73724319     1.58000
C70         C  0.65624439  0.23442713  0.68459899     0.92200
O71         O  0.80692014  0.31272799  0.73581167    -0.81400
H72         H  0.69602727  0.29755105  0.72591358    -0.06800
C73         C  0.73150660  0.19751356  0.70065258     0.87100
O74         O  0.72830547  0.24134855  0.79301418    -0.76000
O75         O  0.77534860  0.27002889  0.70722677    -0.88700
O76         O  0.67514873  0.24635234  0.67578142    -0.81500
C77         C  0.73424778  0.29509043  0.64545156     0.92300
C78         C  0.79871393  0.33197253  0.72355505     0.92200
Mg79       Mg  0.68862952  0.21709900  0.73336723     1.58000
O80         O  0.68415753  0.17381151  0.73426168    -0.81500
O81         O  0.68881060  0.26067147  0.73377372    -0.75700
O82         O  0.74746904  0.30417414  0.66362396    -0.81500
O83         O  0.83281050  0.26670478  0.76856982    -0.83200
O84         O  0.74406106  0.18189230  0.80474940    -0.81600
C85         C  0.70101879  0.27800879  0.72251233     0.86600
O86         O  0.71615063  0.21592119  0.76252113    -0.88700
O87         O  0.71827879  0.21603878  0.70587091    -0.88800
O88         O  0.74312973  0.18506316  0.71768586    -0.75900
Mg89       Mg  0.74858959  0.30076584  0.70786379     1.58000
O90         O  0.71997825  0.27607126  0.64866206    -0.83200
H91         H  0.75698393  0.29484006  0.78852737    -0.07000
O92         O  0.77226098  0.21335954  0.76192558    -0.88500
H93         H  0.79592001  0.18889694  0.74568736    -0.06800
H94         H  0.69189752  0.23209772  0.78640960    -0.07000
C95         C  0.79068097  0.20846156  0.74854727     0.86600
C96         C  0.75957074  0.28930884  0.76894066     0.87200
C97         C  0.71129738  0.22944448  0.78101751     0.87200
H98         H  0.73401020  0.19236733  0.68094884    -0.06900
O99         O  0.76175342  0.24477039  0.67705798    -0.76000
Mg100      Mg  0.74317135  0.18559522  0.76121948     1.58000
H101        H  0.79862081  0.25255245  0.68322456    -0.07000
C102        C  0.83339507  0.25266074  0.78828906     0.92200
O103        O  0.76918336  0.21053403  0.82269437    -0.83200
C104        C  0.75551070  0.19082037  0.82412979     0.92300
O105        O  0.77927797  0.33071702  0.70937079    -0.83200
Mg106      Mg  0.71854508  0.24577666  0.67850064     1.58200
O107        O  0.81385642  0.24133350  0.79628301    -0.81500
O108        O  0.65834237  0.21938147  0.70335108    -0.83200
C109        C  0.88175060  0.49640346  0.76784926     0.86000
C110        C  0.86682550  0.47209277  0.76338400    -0.54200
C111        C  0.85253776  0.47190029  0.74179078     0.09000
C112        C  0.85392332  0.49693777  0.72666992     0.19900
C113        C  0.89688215  0.50006416  0.74308790    -0.54900
C114        C  0.88226322  0.50013287  0.72149190     0.09100
C115        C  0.86224605  0.51764537  0.76712761    -0.54500
C116        C  0.84764888  0.51814548  0.74585101     0.09600
H117        H  0.86799871  0.45600385  0.77620282     0.14100
H118        H  0.84200936  0.49732852  0.70929897    -0.00100
H119        H  0.91713088  0.50176374  0.74224487     0.14500
H120        H  0.86070654  0.53183857  0.78198860     0.14200
C121        C  0.72824675  0.86300985  0.51623463     0.86000
C122        C  0.70695384  0.88224765  0.51298785    -0.54200
C123        C  0.70990747  0.89839562  0.49309992     0.09000
C124        C  0.73428365  0.89382492  0.47773515     0.19900
C125        C  0.72956203  0.84962301  0.49036257    -0.54900
C126        C  0.73257703  0.86559146  0.47002546     0.09100
C127        C  0.75196017  0.87904332  0.51773245    -0.54500
C128        C  0.75616681  0.89454056  0.49740143     0.09600
H129        H  0.68979466  0.88243808  0.52393949     0.14100
H130        H  0.73636976  0.90700167  0.46149831    -0.00100
H131        H  0.72851365  0.82919297  0.48853515     0.14500
H132        H  0.76457406  0.87764627  0.53392707     0.14200
O133        O  0.72083941  0.72218013  0.26739142    -0.88800
C134        C  0.72336470  0.73992129  0.19212850     0.87200
Mg135      Mg  0.71681555  0.74935815  0.29666842     1.58100
O136        O  0.78208419  0.72507812  0.21919368    -0.88500
O137        O  0.74827147  0.69297976  0.25745479    -0.75900
C138        C  0.79495811  0.84188177  0.26637496     0.92300
O139        O  0.69253801  0.76780811  0.23864977    -0.75700
O140        O  0.77566971  0.83690383  0.27954020    -0.83200
Mg141      Mg  0.69486857  0.72462232  0.23606682     1.58000
C142        C  0.84431748  0.76924801  0.20445283     0.92200
O143        O  0.69266924  0.68217100  0.23149141    -0.81400
H144        H  0.80513498  0.70109551  0.23726280    -0.06800
C145        C  0.76510536  0.79984829  0.21406278     0.87100
O146        O  0.75963542  0.75001499  0.30312878    -0.76000
O147        O  0.72627591  0.72628149  0.21100270    -0.88700
O148        O  0.82738043  0.75658097  0.19274158    -0.81500
C149        C  0.77501190  0.70392513  0.15439151     0.92300
C150        C  0.70298451  0.66328010  0.22079422     0.92200
Mg151      Mg  0.80548388  0.78114721  0.24997136     1.58000
O152        O  0.80559093  0.82529519  0.25240628    -0.81500
O153        O  0.80904194  0.73773563  0.24818518    -0.75700
O154        O  0.76144881  0.69465247  0.17198556    -0.81500
O155        O  0.66090398  0.72315773  0.26213995    -0.83200
O156        O  0.74110868  0.80689898  0.31821303    -0.81600
C157        C  0.79908093  0.72046602  0.23465852     0.86600
O158        O  0.77480931  0.77757764  0.27606964    -0.88700
O159        O  0.77904755  0.78170050  0.21897015    -0.88800
O160        O  0.75180045  0.81048723  0.23103788    -0.75900
Mg161      Mg  0.75397665  0.69635297  0.21458418     1.58000
O162        O  0.78756094  0.72426621  0.15755891    -0.83200
H163        H  0.73390122  0.69724363  0.29278491    -0.07000
O164        O  0.71892754  0.77865146  0.26873615    -0.88500
H165        H  0.69688587  0.80385724  0.25112299    -0.06800
H166        H  0.79650589  0.75964780  0.30146821    -0.07000
C167        C  0.70239721  0.78425715  0.25314368     0.86600
C168        C  0.73389858  0.70371863  0.27329779     0.87200
C169        C  0.77779608  0.76262144  0.29393848     0.87200
H170        H  0.76379002  0.80652096  0.19468281    -0.06900
O171        O  0.74145482  0.75224901  0.18253206    -0.76000
Mg172      Mg  0.74689254  0.80660086  0.27448116     1.58000
H173        H  0.70474726  0.74207264  0.18409728    -0.07000
C174        C  0.65640005  0.73597606  0.28208028     0.92200
O175        O  0.71353804  0.77717848  0.32886677    -0.83200
C176        C  0.72677580  0.79641849  0.33449987     0.92300
O177        O  0.72458877  0.66483979  0.21056952    -0.83200
Mg178      Mg  0.78398082  0.75367098  0.18974261     1.58200
O179        O  0.67370012  0.74778061  0.29402619    -0.81500
O180        O  0.83918672  0.78281991  0.22373445    -0.83200
C181        C  0.74036853  0.60982865  0.99421824     0.86000
C182        C  0.73788870  0.62829260  0.97200645    -0.54200
C183        C  0.75689184  0.64531922  0.97013221     0.09000
C184        C  0.77726392  0.64244106  0.99091513     0.19900
C185        C  0.76643273  0.59744553  0.99032699    -0.54900
C186        C  0.78574395  0.61462363  0.98874641     0.09100
C187        C  0.74375312  0.62648801  0.01773434    -0.54500
C188        C  0.76313600  0.64333824  0.01642824     0.09600
H189        H  0.72273591  0.62728946  0.95810862     0.14100
H190        H  0.79285321  0.65630387  0.98934961    -0.00100
H191        H  0.76974779  0.57724611  0.98929320     0.14500
H192        H  0.73196504  0.62459462  0.03442603     0.14200
C193        C  0.52819486  0.75696706  0.35859345     0.86000
C194        C  0.52637610  0.73167855  0.37273618    -0.54200
C195        C  0.50514123  0.72878385  0.38699233     0.09000
C196        C  0.48733639  0.75190148  0.38569738     0.19900
C197        C  0.50366152  0.75870871  0.34303829    -0.46100
C198        C  0.48207566  0.75634658  0.35709575     0.09100
C199        C  0.52516454  0.77682053  0.37975386    -0.54500
C200        C  0.50387700  0.77431389  0.39364930     0.09600
H201        H  0.54076766  0.71717666  0.37132901     0.14100
H202        H  0.47040092  0.75026433  0.39774918    -0.00100
H203        H  0.50362783  0.76180640  0.32266237     0.14500
H204        H  0.53799305  0.79217061  0.38373748     0.14200
C205        C  0.13709831  0.97704692  0.75182990     0.86000
C206        C  0.11678813  0.97993369  0.73113764    -0.54200
C207        C  0.10419112  0.00243860  0.73159792     0.09000
C208        C  0.11215428  0.01983744  0.75357314     0.19900
C209        C  0.15372571  0.00077167  0.74893913    -0.54900
C210        C  0.14074994  0.02329082  0.74992801     0.09100
C211        C  0.12252365  0.98134796  0.77654029    -0.54500
C212        C  0.10932746  0.00349637  0.77765509     0.09600
H213        H  0.11342360  0.96590023  0.71646027     0.14100
H214        H  0.10108938  0.03762308  0.75399133    -0.00100
H215        H  0.17393384  0.99971055  0.74649160     0.14500
H216        H  0.12209144  0.96781999  0.79194973     0.14200
C217        C  0.75169004  0.13559866  0.96664660     0.86000
C218        C  0.72985988  0.11675855  0.96833533    -0.54200
C219        C  0.72865602  0.10352131  0.99058337     0.09000
C220        C  0.74985648  0.11053875  0.00956220     0.19900
C221        C  0.74807301  0.15247134  0.99014875    -0.54900
C222        C  0.74723752  0.13943984  0.01260848     0.09100
C223        C  0.77521657  0.12008144  0.97237893    -0.54500
C224        C  0.77473861  0.10723401  0.99491892     0.09600
H225        H  0.71486323  0.11585906  0.95435707     0.14100
H226        H  0.74911041  0.09998310  0.02778608    -0.00100
H227        H  0.74627922  0.17292041  0.98915699     0.14500
H228        H  0.79134738  0.11993978  0.95980598     0.14200
C229        C  0.35916065  0.52226983  0.75380175     0.86000
C230        C  0.37448562  0.52427864  0.72926268    -0.54200
C231        C  0.39136662  0.50519014  0.72545311     0.09000
C232        C  0.39158665  0.48544146  0.74714174     0.19900
C233        C  0.34718904  0.49592054  0.75293119    -0.54900
C234        C  0.36398234  0.47655515  0.74955607     0.09100
C235        C  0.37942738  0.52043763  0.77465046    -0.54500
C236        C  0.39615930  0.50118851  0.77143301     0.09600
H237        H  0.37226962  0.53974190  0.71586590     0.14100
H238        H  0.40535083  0.46985418  0.74457772    -0.00100
H239        H  0.32710510  0.49287901  0.75483015     0.14500
H240        H  0.38092082  0.53320529  0.79071282     0.14200
C241        C  0.75458500  0.36422281  0.46628518     0.86000
C242        C  0.77665822  0.38254776  0.46781723    -0.54200
C243        C  0.77671664  0.39797862  0.48862350     0.09000
C244        C  0.75335287  0.39449929  0.50564193     0.19900
C245        C  0.75471847  0.35041123  0.49216378    -0.54900
C246        C  0.75399801  0.36626047  0.51275447     0.09100
C247        C  0.73121909  0.38092284  0.46735194    -0.54500
C248        C  0.73020199  0.39677054  0.48781663     0.09600
H249        H  0.79181949  0.38226429  0.45407016     0.14100
H250        H  0.75272946  0.40739069  0.52227089    -0.00100
H251        H  0.75497143  0.33007998  0.49449251     0.14500
H252        H  0.71586323  0.37893818  0.45382078     0.14200
C253        C  0.62152830  0.50239695  0.27464731     0.86000
C254        C  0.63413302  0.52766502  0.26752118    -0.54200
C255        C  0.64741033  0.52673307  0.24534838     0.09000
C256        C  0.64685373  0.50082700  0.23218435     0.19900
C257        C  0.60557191  0.49557665  0.25121151    -0.54900
C258        C  0.61867846  0.49500103  0.22891546     0.09100
C259        C  0.64323284  0.48332497  0.27467907    -0.54500
C260        C  0.65613340  0.48217285  0.25247943     0.09600
H261        H  0.63349163  0.54478041  0.27877826     0.14100
H262        H  0.65781770  0.49994416  0.21431265    -0.00100
H263        H  0.58545339  0.49234756  0.25219853     0.14500
H264        H  0.64702172  0.47048116  0.29037828     0.14200
C265        C  0.27918408  0.60491414  0.51166806     0.86000
C266        C  0.27340601  0.62220032  0.53417148    -0.54200
C267        C  0.25124764  0.63497992  0.53219299     0.09000
C268        C  0.23667193  0.62953916  0.50747995     0.19900
C269        C  0.25593980  0.58765392  0.50898574    -0.54900
C270        C  0.23375666  0.60058015  0.50667165     0.09100
C271        C  0.27747349  0.62214761  0.48819027    -0.54500
C272        C  0.25533142  0.63517622  0.48581607     0.09600
H273        H  0.28584787  0.62410254  0.55049684     0.14100
H274        H  0.21872358  0.64015503  0.50596518    -0.00100
H275        H  0.25661047  0.56721085  0.50777072     0.14500
H276        H  0.29222832  0.62291018  0.47404575     0.14200
C277        C  0.00569403  0.72385070  0.10687435     0.86000
C278        C  0.98070995  0.72302598  0.12093153    -0.54200
C279        C  0.97686328  0.74216334  0.13786023     0.09000
C280        C  0.99995919  0.75979997  0.14062218     0.19900
C281        C  0.00707429  0.75090176  0.09574010    -0.54900
C282        C  0.00390153  0.76967146  0.11341579     0.09100
C283        C  0.02568377  0.72368839  0.12785412    -0.54500
C284        C  0.02301495  0.74237006  0.14555654     0.09600
H285        H  0.96649053  0.70893389  0.11651132     0.14100
H286        H  0.99771894  0.77501500  0.15497207    -0.00100
H287        H  0.00985583  0.75520901  0.07584660     0.14500
H288        H  0.04134394  0.71047847  0.12809810     0.14200
O289        O  0.25016068  0.72187141  0.28494901    -0.88800
C290        C  0.18871218  0.76779970  0.27825989     0.87200
Mg291      Mg  0.28419580  0.73287395  0.30354776     1.58100
O292        O  0.22346044  0.76069852  0.22214322    -0.88500
O293        O  0.23811301  0.70863450  0.24732392    -0.75900
C294        C  0.30443778  0.84991570  0.26166952     0.92300
O295        O  0.23090436  0.76370978  0.32427411    -0.75700
O296        O  0.31055352  0.83562305  0.28019608    -0.83200
Mg297      Mg  0.21572983  0.72746215  0.30562875     1.58000
C298        C  0.24277524  0.82183916  0.17806736     0.92200
O299        O  0.19897295  0.69018758  0.29011519    -0.81400
H300        H  0.23935434  0.73856602  0.19591181    -0.06800
C301        C  0.23811074  0.82255306  0.26513157     0.87100
O302        O  0.30211991  0.74386804  0.26556747    -0.76000
O303        O  0.20142665  0.74874991  0.27353495    -0.88700
O304        O  0.22343957  0.80991203  0.18603095    -0.81500
C305        C  0.15615055  0.76731716  0.21089918     0.92300
C306        C  0.18578881  0.68219177  0.27144548     0.92200
Mg307      Mg  0.27577816  0.80420927  0.22676445     1.58000
O308        O  0.29099738  0.84182747  0.24322292    -0.81500
O309        O  0.26154205  0.76758191  0.20765952    -0.75700
O310        O  0.16353869  0.74808498  0.22375191    -0.81500
O311        O  0.23021642  0.70618869  0.34103256    -0.83200
O312        O  0.32862044  0.78255815  0.30705450    -0.81600
C313        C  0.24110232  0.75506001  0.20793913     0.86600
O314        O  0.29021290  0.78284546  0.25805266    -0.88700
O315        O  0.24096558  0.80907480  0.24608836    -0.88800
O316        O  0.25299946  0.82154102  0.28415286    -0.75900
Mg317      Mg  0.20181270  0.73007104  0.23711350     1.58000
O318        O  0.17084813  0.78586432  0.20652592    -0.83200
H319        H  0.26827731  0.69447406  0.26631000    -0.07000
O320        O  0.26874377  0.76985375  0.30895659    -0.88500
H321        H  0.25406376  0.79194106  0.33591405    -0.06800
H322        H  0.31397466  0.76437250  0.23532602    -0.07000
C323        C  0.25164542  0.77563570  0.32374290     0.86600
C324        C  0.25270323  0.70762419  0.26649159     0.87200
C325        C  0.30278471  0.76399924  0.25240754     0.87200
H326        H  0.22214203  0.83518947  0.26586923    -0.06900
O327        O  0.18906366  0.78728452  0.26402833    -0.76000
Mg328      Mg  0.29001145  0.80083601  0.29447100     1.58000
H329        H  0.17741316  0.76810778  0.29526942    -0.07000
C330        C  0.25136306  0.70803444  0.35240857     0.92200
O331        O  0.32072117  0.74407052  0.32249780    -0.83200
C332        C  0.33556017  0.76263374  0.31908651     0.92300
O333        O  0.18096327  0.69601231  0.25218636    -0.83200
Mg334      Mg  0.20756636  0.79762888  0.22581624     1.58200
O335        O  0.27005696  0.71880699  0.34195313    -0.81500
O336        O  0.26184024  0.82551945  0.19227282    -0.83200
C337        C  0.24652527  0.85421034  0.98239617     0.86000
C338        C  0.27191152  0.86762682  0.98559777    -0.54200
C339        C  0.27407723  0.88218667  0.00692691     0.09000
C340        C  0.24981254  0.88254477  0.02310597     0.19900
C341        C  0.24263996  0.83965761  0.00749233    -0.54900
C342        C  0.24450445  0.85437538  0.02896169     0.09100
C343        C  0.22748072  0.87601138  0.98329647    -0.54500
C344        C  0.22840464  0.89032007  0.00478297     0.09600
H345        H  0.28687505  0.86672701  0.97176750     0.14100
H346        H  0.25094785  0.89496287  0.04004798    -0.00100
H347        H  0.23901959  0.81945442  0.00805488     0.14500
H348        H  0.21283161  0.87861325  0.96909352     0.14200
C349        C  0.46636965  0.25268597  0.64175761     0.86000
C350        C  0.46687888  0.22888348  0.62508235    -0.54200
C351        C  0.48801966  0.22626064  0.61073506     0.09000
C352        C  0.50706985  0.24794059  0.61441759     0.19900
C353        C  0.49079423  0.25061044  0.65762488    -0.54900
C354        C  0.51209497  0.24802005  0.64328454     0.09100
C355        C  0.47097770  0.27463020  0.62349860    -0.54500
C356        C  0.49212408  0.27245558  0.60903909     0.09600
H357        H  0.45215969  0.21465980  0.62552521     0.14100
H358        H  0.52418593  0.24575062  0.60265519    -0.00100
H359        H  0.49143056  0.25013552  0.67819127     0.14500
H360        H  0.45862355  0.29099260  0.62272339     0.14200
O361        O  0.23882711  0.29662697  0.77583973    -0.88800
C362        C  0.30104002  0.25406479  0.75977214     0.87200
Mg363      Mg  0.20815658  0.28350262  0.79868052     1.58100
O364        O  0.25880687  0.26213323  0.70924561    -0.88500
O365        O  0.24579783  0.31265214  0.73806706    -0.75900
C366        C  0.18479330  0.16834436  0.75275881     0.92300
O367        O  0.26513215  0.25394697  0.81025400    -0.75700
O368        O  0.18215780  0.18206436  0.77242162    -0.83200
Mg369      Mg  0.27581156  0.29141589  0.79118101     1.58000
C370        C  0.23791675  0.20070520  0.66575506     0.92200
O371        O  0.28919552  0.32989395  0.77628126    -0.81400
H372        H  0.23876237  0.28427562  0.68588944    -0.06800
C373        C  0.25239433  0.19718208  0.75050348     0.87100
O374        O  0.18605972  0.27309597  0.76244914    -0.76000
O375        O  0.28668900  0.27233440  0.75735586    -0.88700
O376        O  0.25672140  0.21443507  0.67168430    -0.81500
C377        C  0.32377617  0.25873559  0.69029759     0.92300
C378        C  0.30085615  0.33937961  0.75748453     0.92200
Mg379      Mg  0.20958461  0.21537602  0.71755824     1.58000
O380        O  0.19687051  0.17609878  0.73335744    -0.81500
O381        O  0.21983532  0.25339965  0.69851118    -0.75700
O382        O  0.31802019  0.27672119  0.70537718    -0.81500
O383        O  0.26488291  0.31103371  0.82682757    -0.83200
O384        O  0.16732447  0.23221965  0.80318224    -0.81600
C385        C  0.23935987  0.26725442  0.69728374     0.86600
O386        O  0.19865000  0.23528651  0.75111045    -0.88700
O387        O  0.24663412  0.21154814  0.73280509    -0.88800
O388        O  0.24008340  0.19666220  0.77118554    -0.75900
Mg389      Mg  0.28133348  0.29305631  0.72275677     1.58000
O390        O  0.30892667  0.24038953  0.68584426    -0.83200
H391        H  0.21747538  0.32415031  0.76104850    -0.07000
O392        O  0.22576520  0.24696145  0.80008494    -0.88500
H393        H  0.24487539  0.22442231  0.82380040    -0.06800
H394        H  0.17151908  0.25385834  0.73242206    -0.07000
C395        C  0.24496712  0.24126168  0.81212578     0.86600
C396        C  0.23347500  0.31176282  0.75869088     0.87200
C397        C  0.18472014  0.25380013  0.74810157     0.87200
H398        H  0.26869401  0.18512389  0.74855418    -0.06900
O399        O  0.29976524  0.23502257  0.74508416    -0.76000
Mg400      Mg  0.20409635  0.21589908  0.78625958     1.58000
H401        H  0.31457631  0.25401091  0.77515574    -0.07000
C402        C  0.24649201  0.30984876  0.84204150     0.92200
O403        O  0.17459051  0.26978907  0.82099319    -0.83200
C404        C  0.16032044  0.25087108  0.81687711     0.92300
O405        O  0.30376807  0.32709474  0.73689093    -0.83200
Mg406      Mg  0.27648608  0.22582671  0.70930879     1.58200
O407        O  0.22651028  0.29755825  0.83666272    -0.81500
O408        O  0.22056888  0.19563525  0.68145198    -0.83200
C409        C  0.97015476  0.24474893  0.85377039     0.86000
C410        C  0.97327155  0.26863882  0.86980652    -0.54200
C411        C  0.99392632  0.26876466  0.88536854     0.09000
C412        C  0.00924364  0.24394375  0.88407822     0.19900
C413        C  0.99545022  0.24142557  0.83993071    -0.54900
C414        C  0.01587371  0.24119437  0.85581605     0.09100
C415        C  0.97001611  0.22291198  0.87294499    -0.54500
C416        C  0.99040136  0.22220318  0.88880991     0.09600
H417        H  0.96030886  0.28445946  0.86832109     0.14100
H418        H  0.02590916  0.24353032  0.89683212    -0.00100
H419        H  0.99722183  0.23930834  0.81951845     0.14500
H420        H  0.95622204  0.20779938  0.87230249     0.14200
O421        O  0.78112970  0.28145546  0.26505165    -0.88800
C422        C  0.76757806  0.20705397  0.27577346     0.87200
Mg423      Mg  0.75260645  0.30938669  0.26268064     1.58100
O424        O  0.78314297  0.22485462  0.21364166    -0.88500
O425        O  0.81271990  0.26900443  0.24187685    -0.75900
C426        C  0.66427835  0.26114306  0.18622496     0.92300
O427        O  0.73662634  0.25566262  0.29574440    -0.75700
O428        O  0.66628940  0.27754433  0.20387603    -0.83200
Mg429      Mg  0.77982444  0.25571854  0.29650686     1.58000
C430        C  0.74335932  0.19689262  0.15277159     0.92200
O431        O  0.82303550  0.25531676  0.30127926    -0.81400
H432        H  0.80684169  0.24045275  0.18879450    -0.06800
C433        C  0.70752404  0.21846575  0.22725334     0.87100
O434        O  0.75335505  0.30821482  0.21912226    -0.76000
O435        O  0.78108532  0.22527487  0.27030468    -0.88700
O436        O  0.75584918  0.18981732  0.17220923    -0.81500
C437        C  0.80577472  0.16331912  0.23100085     0.92300
C438        C  0.84238400  0.24325324  0.29361874     0.92200
Mg439      Mg  0.72673199  0.24758470  0.18203318     1.58000
O440        O  0.68321135  0.24817194  0.17890418    -0.81500
O441        O  0.77007233  0.24771816  0.18132947    -0.75700
O442        O  0.81478484  0.18254972  0.24251780    -0.81500
O443        O  0.77720017  0.28707682  0.32542767    -0.83200
O444        O  0.69546278  0.32372270  0.23238185    -0.81600
C445        C  0.78754122  0.23749709  0.19436806     0.86600
O446        O  0.72680926  0.27859946  0.20756692    -0.88700
O447        O  0.72632138  0.22252527  0.21412063    -0.88800
O448        O  0.69489945  0.23641672  0.23702789    -0.75900
Mg449      Mg  0.81121403  0.22578441  0.24315118     1.58000
O450        O  0.78573167  0.16455858  0.21782225    -0.83200
H451        H  0.80546989  0.30584036  0.24980725    -0.07000
O452        O  0.72442292  0.28034498  0.26437468    -0.88500
H453        H  0.70014055  0.26388332  0.28804011    -0.06800
H454        H  0.74458296  0.30044874  0.18240253    -0.07000
C455        C  0.71957784  0.26689704  0.28299660     0.86600
C456        C  0.80007508  0.28630726  0.25252601     0.87200
C457        C  0.74131141  0.29606310  0.20217413     0.87200
H458        H  0.70201847  0.19913329  0.23098961    -0.06900
O459        O  0.75557163  0.19474941  0.25893968    -0.76000
Mg460      Mg  0.69681278  0.27994388  0.23455345     1.58000
H461        H  0.76505668  0.20217079  0.29554482    -0.07000
C462        C  0.76364308  0.30690571  0.32571881     0.92200
O463        O  0.72383073  0.33993787  0.25902118    -0.83200
C464        C  0.70534972  0.34255282  0.24387983     0.92300
O465        O  0.84130053  0.22833050  0.27454626    -0.83200
Mg466      Mg  0.75576030  0.19473572  0.21545381     1.58200
O467        O  0.75262374  0.31517505  0.30583684    -0.81500
O468        O  0.72803473  0.21537190  0.15372992    -0.83200
C469        C  0.88876384  0.00289619  0.27897985     0.86000
C470        C  0.87241926  0.97927746  0.27767811    -0.54200
C471        C  0.85751679  0.97760853  0.25665816     0.09000
C472        C  0.86088346  0.99995422  0.23808091     0.19900
C473        C  0.90413573  0.00207792  0.25410418    -0.54900
C474        C  0.88930155  0.00072130  0.23266378     0.09100
C475        C  0.87072279  0.02510863  0.27529605    -0.54500
C476        C  0.85655024  0.02407064  0.25374139     0.09600
H477        H  0.87322035  0.96464270  0.29217072     0.14100
H478        H  0.84888675  0.99874292  0.22080303    -0.00100
H479        H  0.92442061  0.00344972  0.25314233     0.14500
H480        H  0.87051577  0.04134667  0.28798177     0.14200
C481        C  0.02625641  0.24837293  0.36129901     0.86000
C482        C  0.02239992  0.22779843  0.38137028    -0.54200
C483        C  0.00016734  0.22916846  0.39384062     0.09000
C484        C  0.98288720  0.25073308  0.38456903     0.19900
C485        C  0.00344695  0.24519012  0.34346668    -0.54900
C486        C  0.98064210  0.24638215  0.35554766     0.09100
C487        C  0.02162613  0.27326317  0.37518154    -0.54500
C488        C  0.99900801  0.27490182  0.38725439     0.09600
H489        H  0.03537617  0.21230623  0.38478271     0.14100
H490        H  0.96458373  0.25151590  0.39456599    -0.00100
H491        H  0.00517262  0.24205495  0.32317044     0.14500
H492        H  0.03553523  0.28829766  0.37565046     0.14200
O493        O  0.28236575  0.24099659  0.22611504    -0.88800
C494        C  0.27870338  0.25285310  0.30247429     0.87200
Mg495      Mg  0.28514909  0.27092004  0.19867951     1.58100
O496        O  0.22154368  0.23618601  0.27392422    -0.88500
O497        O  0.25719996  0.20922570  0.23468754    -0.75900
C498        C  0.19945946  0.35570950  0.23626276     0.92300
O499        O  0.30764314  0.28498574  0.25900420    -0.75700
O500        O  0.22040056  0.35502684  0.22464305    -0.83200
Mg501      Mg  0.30795135  0.24154402  0.25762784     1.58000
C502        C  0.15630067  0.27494701  0.28967061     0.92200
O503        O  0.31190826  0.19800652  0.25725860    -0.81400
H504        H  0.20107968  0.21208429  0.25313159    -0.06800
C505        C  0.23255588  0.31192787  0.28480470     0.87100
O506        O  0.24249484  0.26965710  0.19231404    -0.76000
O507        O  0.27700752  0.23949205  0.28325154    -0.88700
O508        O  0.17412005  0.26298447  0.30067242    -0.81500
C509        C  0.22808795  0.21306197  0.33793205     0.92300
C510        C  0.30253251  0.17796774  0.26694814     0.92200
Mg511      Mg  0.19441057  0.29260823  0.24609438     1.58000
O512        O  0.19003055  0.33586854  0.24616060    -0.81500
O513        O  0.19470624  0.24906375  0.24487266    -0.75700
O514        O  0.24381008  0.20415207  0.32187211    -0.81500
O515        O  0.34144525  0.24493967  0.23156905    -0.83200
O516        O  0.25692607  0.32833549  0.18397223    -0.81600
C517        C  0.20550491  0.23158309  0.25746120     0.86600
O518        O  0.22560474  0.29407412  0.22129356    -0.88700
O519        O  0.22045340  0.29331844  0.27742168    -0.88800
O520        O  0.24597795  0.32493541  0.26977737    -0.75900
Mg521      Mg  0.25105518  0.20870169  0.27798243     1.58000
O522        O  0.21458044  0.23228399  0.33288063    -0.83200
H523        H  0.27002301  0.21717430  0.19932961    -0.07000
O524        O  0.28131164  0.29785600  0.22943408    -0.88500
H525        H  0.30169097  0.32192492  0.25033477    -0.06800
H526        H  0.20520208  0.27730613  0.19413572    -0.07000
C527        C  0.29722058  0.30242674  0.24604715     0.86600
C528        C  0.27019469  0.22223242  0.21922992     0.87200
C529        C  0.22365082  0.28061879  0.20215310     0.87200
H530        H  0.23242001  0.31670499  0.30477406    -0.06900
O531        O  0.25972766  0.26395680  0.31190292    -0.76000
Mg532      Mg  0.25140118  0.32492982  0.22656886     1.58000
H533        H  0.29699302  0.25588234  0.31096782    -0.07000
C534        C  0.34652216  0.25880012  0.21245490     0.92200
O535        O  0.28510051  0.30150655  0.16792386    -0.83200
C536        C  0.27000178  0.32014306  0.16553105     0.92300
O537        O  0.28201962  0.17851176  0.27941251    -0.83200
Mg538      Mg  0.21725114  0.26315822  0.30398001     1.58200
O539        O  0.32934397  0.27108978  0.20056621    -0.81500
O540        O  0.16037996  0.28993610  0.27127619    -0.83200
C541        C  0.28343070  0.40510269  0.00290683     0.86000
C542        C  0.28001483  0.38867234  0.97937388    -0.54200
C543        C  0.25863851  0.37437223  0.97888855     0.09000
C544        C  0.24293888  0.37704415  0.00338725     0.19900
C545        C  0.25880358  0.42046790  0.00497320    -0.54900
C546        C  0.23752242  0.40571053  0.00544086     0.09100
C547        C  0.28216537  0.38675988  0.02522495    -0.54500
C548        C  0.26132006  0.37196084  0.02552073     0.09600
H549        H  0.29382688  0.38861282  0.96427272     0.14100
H550        H  0.22589974  0.36500972  0.00410522    -0.00100
H551        H  0.25806912  0.44088625  0.00670222     0.14500
H552        H  0.29616896  0.38622198  0.04033103     0.14200
C553        C  0.38389592  0.01058080  0.21863867     0.86000
C554        C  0.36971109  0.03604866  0.22051594    -0.54200
C555        C  0.35298109  0.03739537  0.24014808     0.09000
C556        C  0.35146097  0.01276254  0.25577892     0.19900
C557        C  0.39564168  0.00682930  0.24528959    -0.54900
C558        C  0.37860565  0.00845199  0.26466361     0.09100
C559        C  0.36282708  0.99092007  0.21696926    -0.54500
C560        C  0.34631147  0.99141193  0.23655769     0.09600
H561        H  0.37231731  0.05189224  0.20781802     0.14100
H562        H  0.33781404  0.01334300  0.27165575    -0.00100
H563        H  0.41566571  0.00442606  0.24854255     0.14500
H564        H  0.36228539  0.97620105  0.20255237     0.14200
O565        O  0.97692734  0.98826714  0.55385161    -0.88800
C566        C  0.04036125  0.99909149  0.51166501     0.87200
Mg567      Mg  0.94545379  0.96627935  0.54113435     1.58100
O568        O  0.00257720  0.05315500  0.51602310    -0.88500
O569        O  0.98549040  0.02690538  0.56697169    -0.75900
C570        C  0.92563285  0.00984108  0.42565676     0.92300
O571        O  0.00169767  0.95131531  0.51250245    -0.75700
O572        O  0.92009916  0.99137011  0.43995347    -0.83200
Mg573      Mg  0.01314322  0.97111390  0.54963004     1.58000
C574        C  0.98293647  0.09370685  0.45296844     0.92200
O575        O  0.02589907  0.98751803  0.58737228    -0.81400
H576        H  0.98484374  0.07900526  0.53710863    -0.06800
C577        C  0.99231430  0.00884862  0.45378089     0.87100
O578        O  0.92469579  0.00300114  0.53024858    -0.76000
O579        O  0.02582553  0.00355813  0.52935936    -0.88700
O580        O  0.00281031  0.08694536  0.46498164    -0.81500
C581        C  0.06954231  0.06526710  0.51221269     0.92300
C582        C  0.03723862  0.00622671  0.59738779     0.92200
Mg583      Mg  0.95211928  0.04462346  0.47144672     1.58000
O584        O  0.93939415  0.02808131  0.43308207    -0.81500
O585        O  0.96375105  0.06500872  0.50815074    -0.75700
O586        O  0.06043880  0.05382695  0.53156025    -0.81500
O587        O  0.00128678  0.93580753  0.57037453    -0.83200
O588        O  0.90356232  0.96275942  0.48993342    -0.81600
C589        C  0.98406226  0.06648177  0.52088489     0.86600
O590        O  0.93917667  0.01271397  0.49267322    -0.88700
O591        O  0.98818579  0.02730786  0.46764771    -0.88800
O592        O  0.97833966  0.98929653  0.45391179    -0.75900
Mg593      Mg  0.02257525  0.03946012  0.54824076     1.58000
O594        O  0.05635307  0.06931656  0.49227058    -0.83200
H595        H  0.95563601  0.00644463  0.57919291    -0.07000
O596        O  0.96288998  0.96322477  0.50486400    -0.88500
H597        H  0.98074190  0.93803185  0.48308955    -0.06800
H598        H  0.91253669  0.03323287  0.50974009    -0.07000
C599        C  0.98145611  0.95013787  0.49963080     0.86600
C600        C  0.97213456  0.00690522  0.56730179     0.87200
C601        C  0.92484228  0.01695831  0.51058859     0.87200
H602        H  0.00856544  0.00913914  0.44154400    -0.06900
O603        O  0.04043377  0.01242558  0.49159060    -0.76000
Mg604      Mg  0.94159038  0.97718449  0.47369942     1.58000
H605        H  0.05277174  0.98292788  0.51298315    -0.07000
C606        C  0.98265743  0.92124538  0.56670023     0.92200
O607        O  0.91110800  0.94475787  0.52745696    -0.83200
C608        C  0.89673195  0.94879668  0.50843151     0.92300
O609        O  0.04226913  0.02608088  0.58463130    -0.83200
Mg610      Mg  0.02027697  0.04897138  0.47960869     1.58200
O611        O  0.96314179  0.92822622  0.55438815    -0.81500
O612        O  0.96423242  0.07904946  0.45037015    -0.83200
O613        O  0.02328389  0.95578238  0.99890124    -0.88800
C614        C  0.01246616  0.99709405  0.06247113     0.87200
Mg615      Mg  0.04177637  0.97074605  0.96655224     1.58100
O616        O  0.95767080  0.98885746  0.02606857    -0.88500
O617        O  0.98646140  0.93957038  0.00829351    -0.75900
C618        C  0.99010750  0.08405020  0.94890774     0.92300
O619        O  0.05796397  0.99942344  0.02243354    -0.75700
O620        O  0.01033358  0.07232542  0.94366908    -0.83200
Mg621      Mg  0.04208573  0.96078280  0.03455117     1.58000
C622        C  0.91216531  0.05114060  0.01077865     0.92200
O623        O  0.02913952  0.92144040  0.04804104    -0.81400
H624        H  0.93278754  0.96609414  0.00901048    -0.06800
C625        C  0.99545057  0.05496496  0.01553594     0.87100
O626        O  0.00365394  0.97903501  0.94750152    -0.76000
O627        O  0.00894577  0.97868724  0.04840221    -0.88700
O628        O  0.91959751  0.03802409  0.02978214    -0.81500
C629        C  0.94812899  0.99116107  0.09379893     0.92300
C630        C  0.01128454  0.91133192  0.06053616     0.92200
Mg631      Mg  0.95971751  0.03470117  0.97576741     1.58000
O632        O  0.97259397  0.07358927  0.96153780    -0.81500
O633        O  0.94288355  0.99653443  0.98788328    -0.75700
O634        O  0.96146855  0.97319810  0.08483463    -0.81500
O635        O  0.07875564  0.94345259  0.02078914    -0.83200
O636        O  0.04021214  0.02241139  0.92461834    -0.81600
C637        C  0.94380050  0.98324739  0.00799991     0.86600
O638        O  0.99236065  0.01654748  0.96114758    -0.88700
O639        O  0.97836723  0.03957187  0.01149899    -0.88800
O640        O  0.01461006  0.05646295  0.00125097    -0.75900
Mg641      Mg  0.97455648  0.95784177  0.04601761     1.58000
O642        O  0.94139897  0.01000491  0.08024635    -0.83200
H643        H  0.00708114  0.92880926  0.97781890    -0.07000
O644        O  0.04284741  0.00710243  0.98430865    -0.88500
H645        H  0.06716684  0.03033414  0.00156464    -0.06800
H646        H  0.97216015  0.99726427  0.93553026    -0.07000
C647        C  0.05658748  0.01289971  0.00244199     0.86600
C648        C  0.00596918  0.94073139  0.99446589     0.87200
C649        C  0.98879585  0.99789028  0.94738681     0.87200
H650        H  0.99437707  0.06702901  0.03208002    -0.06900
O651        O  0.99747841  0.01581689  0.06282009    -0.76000
Mg652      Mg  0.02672066  0.03793191  0.96361658     1.58000
H653        H  0.02914744  0.99759709  0.07426573    -0.07000
C654        C  0.09139065  0.94930228  0.00116897     0.92200
O655        O  0.05958929  0.98549125  0.93107164    -0.83200
C656        C  0.05310485  0.00367765  0.91661761     0.92300
O657        O  0.99129243  0.92347677  0.06577465    -0.83200
Mg658      Mg  0.95934798  0.02512006  0.04434604     1.58200
O659        O  0.08121344  0.96064322  0.98231527    -0.81500
O660        O  0.92532207  0.05359768  0.99086442    -0.83200
O661        O  0.46000425  0.04503586  0.48607515    -0.88800
C662        C  0.47756597  0.00536108  0.55051013     0.87200
Mg663      Mg  0.43682422  0.02971009  0.45652013     1.58100
O664        O  0.52728661  0.00884888  0.50755943    -0.88500
O665        O  0.49883438  0.05885845  0.49042759    -0.75900
C666        C  0.47913920  0.91218497  0.44179803     0.92300
O667        O  0.42660005  0.00412971  0.51636112    -0.75700
O668        O  0.46007764  0.92618923  0.43819548    -0.83200
Mg669      Mg  0.44624852  0.04179754  0.52412618     1.58000
C670        C  0.56919643  0.94549567  0.48911995     0.92200
O671        O  0.46232748  0.08062983  0.53489943    -0.81400
H672        H  0.55114712  0.02887631  0.48628690    -0.06800
C673        C  0.48512495  0.94526247  0.50664863     0.87100
O674        O  0.47251873  0.01733284  0.43506105    -0.76000
O675        O  0.47999963  0.02265396  0.53483624    -0.88700
O676        O  0.56398894  0.95963328  0.50816752    -0.81500
C677        C  0.54393833  0.00889530  0.57459183     0.92300
C678        C  0.48188815  0.09066185  0.54467687     0.92200
Mg679      Mg  0.51678020  0.95983983  0.46142528     1.58000
O680        O  0.49919550  0.92064366  0.45212341    -0.81500
O681        O  0.53728156  0.99756839  0.46880311    -0.75700
O682        O  0.53100196  0.02714932  0.56544215    -0.81500
O683        O  0.40949590  0.06025533  0.51352730    -0.83200
O684        O  0.43302569  0.97616586  0.41978818    -0.81600
C685        C  0.53922356  0.01238939  0.48775349     0.86600
O686        O  0.48373046  0.98024980  0.45036682    -0.88700
O687        O  0.50302021  0.95831794  0.49929408    -0.88800
O688        O  0.46403547  0.94501501  0.49509104    -0.75900
Mg689      Mg  0.51465181  0.04180981  0.52748413     1.58000
O690        O  0.54953795  0.98954761  0.56128442    -0.83200
H691        H  0.47538254  0.06972365  0.46192133    -0.07000
O692        O  0.43627973  0.99473160  0.47715082    -0.88500
H693        H  0.41251244  0.97377274  0.49755361    -0.06800
H694        H  0.50209106  0.99698462  0.42187746    -0.07000
C695        C  0.42434941  0.99036933  0.49674803     0.86600
C696        C  0.47769579  0.05851980  0.47896655     0.87200
C697        C  0.48666094  0.99787352  0.43512971     0.87200
H698        H  0.48724570  0.93431311  0.52388333    -0.06900
O699        O  0.49176090  0.98597000  0.55051088    -0.76000
Mg700      Mg  0.44871998  0.96202624  0.45773069     1.58000
H701        H  0.46251636  0.00646176  0.56418524    -0.07000
C702        C  0.39352087  0.05603663  0.49592070     0.92200
O703        O  0.41456797  0.01381296  0.42284925    -0.83200
C704        C  0.42019597  0.99410691  0.41006885     0.92300
O705        O  0.50229076  0.07826366  0.54720477    -0.83200
Mg706      Mg  0.52687291  0.97379591  0.52814429     1.58200
O707        O  0.39948214  0.04399369  0.47570421    -0.81500
O708        O  0.55274266  0.93992593  0.47240694    -0.83200
C709        C  0.23482331  0.15206310  0.52175525     0.86000
C710        C  0.25613194  0.13271645  0.52101863    -0.54200
C711        C  0.25559702  0.11618555  0.50101568     0.09000
C712        C  0.23261348  0.12077362  0.48325059     0.19900
C713        C  0.23605749  0.16538307  0.49575008    -0.54900
C714        C  0.23501810  0.14894118  0.47555847     0.09100
C715        C  0.21064360  0.13669064  0.52035391    -0.54500
C716        C  0.20912954  0.12001613  0.50070292     0.09600
H717        H  0.27140737  0.13371388  0.53468683     0.14100
H718        H  0.23133688  0.10765366  0.46685461    -0.00100
H719        H  0.23774770  0.18566547  0.49318912     0.14500
H720        H  0.19541599  0.13956328  0.53372706     0.14200
O721        O  0.54292489  0.98552818  0.97160375    -0.88800
C722        C  0.50484969  0.05094019  0.97933969     0.87200
Mg723      Mg  0.52666021  0.95388174  0.95170525     1.58100
O724        O  0.50966995  0.01598242  0.03539681    -0.88500
O725        O  0.55845960  0.99510985  0.00915787    -0.75900
C726        C  0.41361836  0.93822763  0.00504232     0.92300
O727        O  0.50229577  0.01110095  0.93533803    -0.75700
O728        O  0.42597317  0.93488511  0.98461324    -0.83200
Mg729      Mg  0.54104708  0.02115724  0.95282711     1.58000
C730        C  0.44976522  0.00533028  0.08246597     0.92200
O731        O  0.58065411  0.03298538  0.96748225    -0.81400
H732        H  0.53132531  0.99894997  0.06139857    -0.06800
C733        C  0.44281130  0.00631915  0.99773672     0.87100
O734        O  0.51640119  0.93594663  0.99043434    -0.76000
O735        O  0.52303383  0.03728541  0.98467859    -0.88700
O736        O  0.46126580  0.02302666  0.07090279    -0.81500
C737        C  0.50992068  0.08377300  0.04444770     0.92300
C738        C  0.59092790  0.04511211  0.98580697     0.92200
Mg739      Mg  0.46191589  0.96720150  0.03546443     1.58000
O740        O  0.42193000  0.95218166  0.02309972    -0.81500
O741        O  0.50024432  0.97895484  0.05165674    -0.75700
O742        O  0.52886813  0.07403744  0.03325351    -0.81500
O743        O  0.55887017  0.00537792  0.91793148    -0.83200
O744        O  0.47376969  0.91602901  0.95317220    -0.81600
C745        C  0.51429088  0.99831793  0.05013875     0.86600
O746        O  0.47994487  0.95157397  0.00226041    -0.88700
O747        O  0.45832338  0.00221342  0.01478692    -0.88800
O748        O  0.44128906  0.99224453  0.97826908    -0.75900
Mg749      Mg  0.54224974  0.03407516  0.02039095     1.58000
O750        O  0.48991188  0.07118926  0.04823712    -0.83200
H751        H  0.56775655  0.96335562  0.98960394    -0.07000
O752        O  0.49141845  0.97397943  0.95054877    -0.88500
H753        H  0.47017979  0.99277168  0.92536365    -0.06800
H754        H  0.49831867  0.92543953  0.02265379    -0.07000
C755        C  0.48727125  0.99237861  0.93654619     0.86600
C756        C  0.55694440  0.98068688  0.98983026     0.87200
C757        C  0.49796695  0.93709081  0.00576713     0.87200
H758        H  0.43087664  0.02283672  0.99899680    -0.06900
O759        O  0.48507525  0.05132090  0.99273808    -0.76000
Mg760      Mg  0.45965553  0.95466523  0.96706120     1.58000
H761        H  0.50533522  0.06196884  0.96204337    -0.07000
C762        C  0.55155046  0.98787363  0.90309403     0.92200
O763        O  0.51036215  0.91852273  0.93304082    -0.83200
C764        C  0.49090727  0.90611449  0.93955059     0.92300
O765        O  0.57853111  0.05124324  0.00550707    -0.83200
Mg766      Mg  0.47431758  0.03522224  0.03151744     1.58200
O767        O  0.53830766  0.96931099  0.91111553    -0.81500
O768        O  0.44523336  0.98404558  0.07191141    -0.83200
C769        C  0.49380065  0.22093499  0.10863069     0.86000
C770        C  0.47301837  0.22745572  0.12776531    -0.54200
C771        C  0.47580691  0.25029718  0.13934917     0.09000
C772        C  0.49982984  0.26458071  0.13146235     0.19900
C773        C  0.49453688  0.24381710  0.09046862    -0.54900
C774        C  0.49756701  0.26669993  0.10240627     0.09100
C775        C  0.51800755  0.22290613  0.12441158    -0.54500
C776        C  0.52200000  0.24591124  0.13572861     0.09600
H777        H  0.45660377  0.21599879  0.13147438     0.14100
H778        H  0.50179719  0.28313418  0.14108219    -0.00100
H779        H  0.49256672  0.24199936  0.07000896     0.14500
H780        H  0.53109794  0.20723258  0.12592326     0.14200
O781        O  0.54411473  0.47087236  0.02440898    -0.88800
C782        C  0.47035210  0.48620425  0.03061602     0.87200
Mg783      Mg  0.57112240  0.50085452  0.02308315     1.58100
O784        O  0.48922939  0.46689572  0.96994620    -0.88500
O785        O  0.53194209  0.43889647  0.00091121    -0.75900
C786        C  0.52425611  0.58429827  0.93954470     0.92300
O787        O  0.51687558  0.51586362  0.05396501    -0.75700
O788        O  0.53783670  0.58459086  0.95961848    -0.83200
Mg789      Mg  0.51732667  0.47219616  0.05466751     1.58000
C790        C  0.46465671  0.50188194  0.90516602     0.92200
O791        O  0.51687420  0.42810714  0.05945835    -0.81400
H792        H  0.50610545  0.44117788  0.94800432    -0.06800
C793        C  0.48099545  0.54254431  0.97875843     0.87100
O794        O  0.57246787  0.49888336  0.97962429    -0.76000
O795        O  0.48804619  0.47144109  0.02691645    -0.88700
O796        O  0.45621209  0.49211627  0.92556736    -0.81500
C797        C  0.42682704  0.44718437  0.98797297     0.92300
C798        C  0.50401522  0.40936460  0.05114870     0.92200
Mg799      Mg  0.51381792  0.52084773  0.93677836     1.58000
O800        O  0.51406631  0.56395455  0.93140594    -0.81500
O801        O  0.51448256  0.47748551  0.93886423    -0.75700
O802        O  0.44566203  0.43817224  0.99999358    -0.81500
O803        O  0.54772894  0.47492682  0.08474398    -0.83200
O804        O  0.58314585  0.55938539  0.99378478    -0.81600
C805        C  0.50301190  0.46100142  0.95201581     0.86600
O806        O  0.54247182  0.52361962  0.96516688    -0.88700
O807        O  0.48667294  0.52333429  0.96668917    -0.88800
O808        O  0.49734910  0.55547422  0.99057970    -0.75900
Mg809      Mg  0.48873247  0.44051601  0.00056508     1.58000
O810        O  0.42890326  0.46551143  0.97252213    -0.83200
H811        H  0.56844617  0.44616475  0.00957077    -0.07000
O812        O  0.54065891  0.52788630  0.02222025    -0.88500
H813        H  0.52412577  0.55263175  0.04553402    -0.06800
H814        H  0.56672490  0.50613275  0.94221617    -0.07000
C815        C  0.52738077  0.53300141  0.04076995     0.86600
C816        C  0.54903496  0.45172320  0.01186843     0.87200
C817        C  0.56091143  0.50982771  0.96151353     0.87200
H818        H  0.46141823  0.54779235  0.98025096    -0.06900
O819        O  0.45890508  0.49725637  0.01247433    -0.76000
Mg820      Mg  0.54023611  0.55495922  0.99158284     1.58000
H821        H  0.46507841  0.49056290  0.04993581    -0.07000
C822        C  0.56616596  0.49020755  0.08634017     0.92200
O823        O  0.60090752  0.53139811  0.02012631    -0.83200
C824        C  0.60214545  0.55092445  0.00601330     0.92300
O825        O  0.48945499  0.41156928  0.03203229    -0.83200
Mg826      Mg  0.45948986  0.49445927  0.96892861     1.58200
O827        O  0.57421281  0.50229149  0.06699148    -0.81500
O828        O  0.48393048  0.51623953  0.90535643    -0.83200
O829        O  0.03116612  0.52975030  0.47085356    -0.88800
C830        C  0.03742804  0.45516984  0.48693068     0.87200
Mg831      Mg  0.03096668  0.55854704  0.49865685     1.58100
O832        O  0.97656544  0.47557873  0.47116754    -0.88500
O833        O  0.00621337  0.51773500  0.44005444    -0.75900
C834        C  0.95385663  0.51891897  0.58917067     0.92300
O835        O  0.06096545  0.50364275  0.51676136    -0.75700
O836        O  0.97248961  0.53346314  0.58530574    -0.83200
Mg837      Mg  0.06073958  0.50215594  0.47319557     1.58000
C838        C  0.91523153  0.45218152  0.51228357     0.92200
O839        O  0.06427379  0.49953635  0.42999054    -0.81400
H840        H  0.95214331  0.49091937  0.44660828    -0.06800
C841        C  0.99112795  0.47099290  0.54722181     0.87100
O842        O  0.98776345  0.55998448  0.49792214    -0.76000
O843        O  0.03274169  0.47350417  0.47307932    -0.88700
O844        O  0.93445044  0.44358913  0.50073629    -0.81500
C845        C  0.99095492  0.41265422  0.44916582     0.92300
C846        C  0.05554413  0.48814653  0.41048233     0.92200
Mg847      Mg  0.94727223  0.50196942  0.52714413     1.58000
O848        O  0.94487574  0.50478681  0.57156019    -0.81500
O849        O  0.94574362  0.50027473  0.48341521    -0.75700
O850        O  0.00278626  0.43165420  0.44031222    -0.81500
O851        O  0.09178098  0.53187038  0.47460551    -0.83200
O852        O  0.00333869  0.57688036  0.55589015    -0.81600
C853        C  0.95789643  0.48869695  0.46621010     0.86600
O854        O  0.97482137  0.53153971  0.52531660    -0.88700
O855        O  0.97758722  0.47470232  0.52839725    -0.88800
O856        O  0.00212097  0.48906020  0.55874653    -0.75900
Mg857      Mg  0.00532530  0.47462936  0.44268870     1.58000
O858        O  0.97785680  0.41428270  0.46932623    -0.83200
H859        H  0.01657643  0.55419610  0.44582350    -0.07000
O860        O  0.03120332  0.53022583  0.52767713    -0.88500
H861        H  0.05409041  0.51402447  0.55316255    -0.06800
H862        H  0.95108011  0.55426350  0.50654857    -0.07000
C863        C  0.04905663  0.51626185  0.53336383     0.86600
C864        C  0.01835408  0.53471360  0.45186276     0.87200
C865        C  0.97038454  0.54890415  0.51013625     0.87200
H866        H  0.99415563  0.45180778  0.55370862    -0.06900
O867        O  0.02034025  0.44377777  0.49918451    -0.76000
Mg868      Mg  0.00227562  0.53262673  0.55524491     1.58000
H869        H  0.05675185  0.44932641  0.48947936    -0.07000
C870        C  0.09308082  0.55128832  0.48889375     0.92200
O871        O  0.03018534  0.59039212  0.52666195    -0.83200
C872        C  0.01609288  0.59459549  0.54557554     0.92300
O873        O  0.03553801  0.47489676  0.41157258    -0.83200
Mg874      Mg  0.97734445  0.44586116  0.49943419     1.58200
O875        O  0.07364016  0.56063555  0.49928558    -0.81500
O876        O  0.91660007  0.47151566  0.52672438    -0.83200
O877        O  0.98021101  0.47203275  0.96028111    -0.88800
C878        C  0.05571728  0.48257745  0.96270546     0.87200
Mg879      Mg  0.95364264  0.50223893  0.95602604     1.58100
O880        O  0.02897297  0.46757564  0.02142511    -0.88500
O881        O  0.98838749  0.44071732  0.98655398    -0.75900
C882        C  0.99339503  0.58854269  0.03893660     0.92300
O883        O  0.01275224  0.51479332  0.93228966    -0.75700
O884        O  0.98151927  0.58872010  0.01782228    -0.83200
Mg885      Mg  0.01083579  0.47141084  0.93360404     1.58000
C886        C  0.04567391  0.51058269  0.08512957     0.92200
O887        O  0.00993855  0.42807120  0.93105374    -0.81400
H888        H  0.00742705  0.44477432  0.04234982    -0.06800
C889        C  0.03977003  0.54271420  0.00640228     0.87100
O890        O  0.94638809  0.50326652  0.99875167    -0.76000
O891        O  0.03623113  0.47007851  0.96505323    -0.88700
O892        O  0.05742744  0.49637840  0.06945668    -0.81500
C893        C  0.09209247  0.44433263  0.01197850     0.92300
C894        C  0.01928452  0.40798941  0.94072537     0.92200
Mg895      Mg  0.00146101  0.52537594  0.04496894     1.58000
O896        O  0.00233578  0.56819585  0.04822832    -0.81500
O897        O  0.99932891  0.48206383  0.04635096    -0.75700
O898        O  0.07441196  0.43599681  0.99771473    -0.81500
O899        O  0.98503838  0.47380717  0.89901163    -0.83200
O900        O  0.93822684  0.56244322  0.98077358    -0.81600
C901        C  0.01211270  0.46398126  0.03711745     0.86600
O902        O  0.97626431  0.52719067  0.01396533    -0.88700
O903        O  0.03271611  0.52461839  0.01953687    -0.88800
O904        O  0.02455646  0.55578985  0.99301997    -0.75900
Mg905      Mg  0.03135836  0.43978544  0.99193379     1.58000
O906        O  0.08871756  0.46286407  0.02715287    -0.83200
H907        H  0.95337993  0.44922327  0.97364870    -0.07000
O908        O  0.98391593  0.52922837  0.95825349    -0.88500
H909        H  0.00483075  0.55207927  0.93672284    -0.06800
H910        H  0.94873747  0.51364741  0.03577009    -0.07000
C911        C  0.00030039  0.53285737  0.94204310     0.86600
C912        C  0.97317604  0.45376474  0.97316841     0.87200
C913        C  0.95668578  0.51507929  0.01696341     0.87200
H914        H  0.05959128  0.54711982  0.00574511    -0.06900
O915        O  0.06610355  0.49350176  0.98151823    -0.76000
Mg916      Mg  0.98156938  0.55751193  0.98728087     1.58000
H917        H  0.06372924  0.48487812  0.94401353    -0.07000
C918        C  0.96581681  0.48759687  0.89493738     0.92200
O919        O  0.92505956  0.53357278  0.95276904    -0.83200
C920        C  0.92119526  0.55324894  0.96617737     0.92300
O921        O  0.03182372  0.40860302  0.96143150    -0.83200
Mg922      Mg  0.05938872  0.49426819  0.02465649     1.58200
O923        O  0.95509382  0.49985258  0.91267682    -0.81500
O924        O  0.02682813  0.52366452  0.07833816    -0.83200
C925        C  0.13404292  0.54134693  0.24703182     0.86000
C926        C  0.11946907  0.53457298  0.27111272    -0.54200
C927        C  0.10889362  0.51106298  0.27098855     0.09000
C928        C  0.11287847  0.49662929  0.24580706     0.19900
C929        C  0.15266569  0.51933916  0.24320551    -0.54900
C930        C  0.14165402  0.49583502  0.24258446     0.09100
C931        C  0.11443224  0.53807689  0.22582584    -0.54500
C932        C  0.10384082  0.51459101  0.22454238     0.09600
H933        H  0.11730850  0.54731174  0.28709854     0.14100
H934        H  0.10354449  0.47788589  0.24513524    -0.00100
H935        H  0.17276545  0.52223353  0.24139005     0.14500
H936        H  0.11040272  0.55258958  0.21180985     0.14200
O937        O  0.46144413  0.49568874  0.51963290    -0.88800
C938        C  0.50783261  0.55653483  0.51737271     0.87200
Mg939      Mg  0.47243000  0.46002412  0.53527156     1.58100
O940        O  0.49866445  0.52599348  0.45862408    -0.88500
O941        O  0.44691657  0.51122498  0.48382335    -0.75900
C942        C  0.58751297  0.44142519  0.48806368     0.92300
O943        O  0.50455824  0.51133775  0.55880615    -0.75700
O944        O  0.57536996  0.43421542  0.50764014    -0.83200
Mg945      Mg  0.46824531  0.52845851  0.54234245     1.58000
C946        C  0.55820922  0.50953497  0.41265856     0.92200
O947        O  0.43083238  0.54701361  0.52917137    -0.81400
H948        H  0.47518563  0.51262771  0.43206688    -0.06800
C949        C  0.56143223  0.50653290  0.49850148     0.87100
O950        O  0.48168253  0.44490975  0.49569153    -0.76000
O951        O  0.48863007  0.54474588  0.51147681    -0.88700
O952        O  0.54842784  0.52841364  0.42396145    -0.81500
C953        C  0.50791819  0.59328084  0.45322419     0.92300
C954        C  0.42380184  0.56326019  0.51262482     0.92200
Mg955      Mg  0.54018109  0.47200557  0.45755028     1.58000
O956        O  0.57731815  0.45514059  0.47098144    -0.81500
O957        O  0.50350174  0.48848899  0.44119135    -0.75700
O958        O  0.48811401  0.58590996  0.46467395    -0.81500
O959        O  0.44843219  0.51181931  0.57644276    -0.83200
O960        O  0.52191827  0.41433441  0.53396653    -0.81600
C961        C  0.49194510  0.50947433  0.44332734     0.86600
O962        O  0.52075934  0.45570283  0.48849724    -0.88700
O963        O  0.54671907  0.50503613  0.48026806    -0.88800
O964        O  0.56112020  0.49072792  0.51671496    -0.75900
Mg965      Mg  0.46928820  0.54767914  0.47578675     1.58000
O966        O  0.52602064  0.57833352  0.44852490    -0.83200
H967        H  0.43285420  0.47977495  0.50073765    -0.07000
O968        O  0.50985847  0.47409695  0.54098648    -0.88500
H969        H  0.53274369  0.48716062  0.56819147    -0.06800
H970        H  0.50104036  0.43413858  0.46443325    -0.07000
C971        C  0.51620288  0.49041776  0.55663419     0.86600
C972        C  0.44640325  0.49498630  0.50164977     0.87200
C973        C  0.50145433  0.44417709  0.48232520     0.87200
H974        H  0.57436535  0.52227895  0.49939440    -0.06900
O975        O  0.52728273  0.55621190  0.50352410    -0.76000
Mg976      Mg  0.54035193  0.45343804  0.52438220     1.58000
H977        H  0.50836846  0.56668106  0.53519892    -0.07000
C978        C  0.45031710  0.49032155  0.58725075     0.92200
O979        O  0.48350641  0.42164803  0.54940313    -0.83200
C980        C  0.50155192  0.40668308  0.54428090     0.92300
O981        O  0.43749474  0.56949033  0.49387741    -0.83200
Mg982      Mg  0.53623092  0.54029866  0.46406160     1.58200
O983        O  0.46011326  0.47131915  0.57603421    -0.81500
O984        O  0.55979745  0.48793425  0.42316908    -0.83200
C985        C  0.98998472  0.77617643  0.60982558     0.86000
C986        C  0.00947870  0.77432731  0.63110815    -0.54200
C987        C  0.00738029  0.75343968  0.64610110     0.09000
C988        C  0.98523695  0.73611666  0.63857441     0.19900
C989        C  0.99273012  0.75090067  0.59521500    -0.54900
C990        C  0.99023422  0.72972294  0.61033755     0.09100
C991        C  0.96457245  0.77394587  0.62279695    -0.54500
C992        C  0.96162009  0.75334062  0.63810716     0.09600
H993        H  0.02490425  0.78768842  0.63288585     0.14100
H994        H  0.98370475  0.71952033  0.65132699    -0.00100
H995        H  0.99613464  0.74967161  0.57499739     0.14500
H996        H  0.94967895  0.78739751  0.61872578     0.14200
O997        O  0.19312226  0.76480987  0.76551423    -0.88800
C998        C  0.22659288  0.75458900  0.69719820     0.87200
Mg999      Mg  0.21130862  0.78329767  0.79660213     1.58100
O1000       O  0.22347473  0.69933297  0.73384896    -0.88500
O1001       O  0.17676503  0.72744624  0.75749804    -0.75900
C1002       C  0.32606675  0.73233047  0.79962877     0.92300
O1003       O  0.23297095  0.80022900  0.73727079    -0.75700
O1004       O  0.31513338  0.75308749  0.80504097    -0.83200
Mg1005     Mg  0.19379138  0.78373330  0.72942637     1.58000
C1006       C  0.28439070  0.65267820  0.74291309     0.92200
O1007       O  0.15353438  0.77028663  0.71980742    -0.81400
H1008       H  0.20302485  0.67429809  0.75329444    -0.06800
C1009       C  0.28942056  0.73793563  0.73702624     0.87100
O1010       O  0.22281021  0.74493699  0.81356267    -0.76000
O1011       O  0.20993067  0.75052151  0.71298237    -0.88700
O1012       O  0.27129932  0.66220987  0.72487949    -0.81500
C1013       C  0.21811408  0.68910849  0.66644855     0.92300
C1014       C  0.14222714  0.75199035  0.70875191     0.92200
Mg1015     Mg  0.27435730  0.70130328  0.77900936     1.58000
O1016       O  0.31445994  0.71402840  0.78905531    -0.81500
O1017       O  0.23531017  0.68470674  0.77103610    -0.75700
O1018       O  0.20027526  0.70121950  0.67715355    -0.81500
O1019       O  0.17847777  0.82063603  0.74557441    -0.83200
O1020       O  0.26797929  0.78290312  0.83089737    -0.81600
C1021       C  0.22003620  0.68542726  0.75242423     0.86600
O1022       O  0.25827278  0.73439327  0.79531248    -0.88700
O1023       O  0.27528858  0.72032761  0.74298501    -0.88800
O1024       O  0.29184640  0.75760604  0.75071596    -0.75900
Mg1025     Mg  0.19015260  0.71537496  0.71781034     1.58000
O1026       O  0.23881904  0.68434777  0.67766874    -0.83200
H1027       H  0.16935698  0.74775300  0.78929915    -0.07000
O1028       O  0.24499998  0.78547779  0.77439315    -0.88500
H1029       H  0.26542825  0.81044500  0.75482255    -0.06800
H1030       H  0.24287539  0.71358448  0.82286298    -0.07000
C1031       C  0.24837751  0.79938515  0.75578885     0.86600
C1032       C  0.17916145  0.74701646  0.77137463     0.87200
C1033       C  0.24170427  0.73041511  0.81122759     0.87200
H1034       H  0.29927318  0.73697941  0.71913899    -0.06900
O1035       O  0.24557057  0.74016604  0.69500245    -0.76000
Mg1036     Mg  0.27831782  0.76936691  0.79033469     1.58000
H1037       H  0.22543278  0.77142544  0.68557041    -0.07000
C1038       C  0.18516865  0.83313096  0.76518481     0.92200
O1039       O  0.22999393  0.80081942  0.83107883    -0.83200
C1040       C  0.25062157  0.79524615  0.84214658     0.92300
O1041       O  0.15361273  0.73163739  0.70280626    -0.83200
Mg1042     Mg  0.25728753  0.70185615  0.71188763     1.58200
O1043       O  0.19795763  0.82297272  0.78310749    -0.81500
O1044       O  0.29006160  0.66532078  0.76268293    -0.83200
C1045       C  0.46791632  0.74271559  0.84879398     0.86000
C1046       C  0.46875605  0.76495042  0.86746840    -0.54200
C1047       C  0.49038635  0.76680430  0.88135218     0.09000
C1048       C  0.50910007  0.74507479  0.87615940     0.19900
C1049       C  0.49209896  0.74538716  0.83302136    -0.54900
C1050       C  0.51365048  0.74632762  0.84737328     0.09100
C1051       C  0.47251513  0.71945977  0.86581301    -0.54500
C1052       C  0.49418790  0.72035889  0.87978847     0.09600
H1053       H  0.45409074  0.77923038  0.86819140     0.14100
H1054       H  0.52659881  0.74611565  0.88768861    -0.00100
H1055       H  0.49216230  0.74599933  0.81240122     0.14500
H1056       H  0.45999571  0.70341503  0.86717976     0.14200
C1057       C  0.35298977  0.72923029  0.80586376    -0.05700
C1058       C  0.36261017  0.70524837  0.81212744    -0.05600
C1059       C  0.38769085  0.70243785  0.81958691    -0.23800
C1060       C  0.40365635  0.72353143  0.82056476     0.18400
C1061       C  0.39459271  0.74740887  0.81267140     0.15600
C1062       C  0.36924679  0.75018865  0.80562466    -0.18800
C1063       C  0.41094949  0.76815471  0.81243495    -0.20700
C1064       C  0.43538657  0.76573891  0.82198556    -0.13200
C1065       C  0.44372062  0.74280581  0.83286125     0.03500
C1066       C  0.42817899  0.72129391  0.83026703    -0.25300
H1067       H  0.35049270  0.68878635  0.81208466     0.08500
H1068       H  0.39441397  0.68388878  0.82521179     0.12100
H1069       H  0.36212466  0.76864336  0.80014167     0.12100
H1070       H  0.40460296  0.78645420  0.80565724     0.11800
H1071       H  0.44729392  0.78234757  0.82241884     0.12400
H1072       H  0.43454723  0.70281310  0.83618088     0.14300
C1073       C  0.02828842  0.74637075  0.66344126    -0.05700
C1074       C  0.03928949  0.72226994  0.66176847    -0.05600
C1075       C  0.06315919  0.71781462  0.67218904    -0.23800
C1076       C  0.07639112  0.73748989  0.68420683     0.18400
C1077       C  0.06459969  0.76121096  0.68756096     0.15600
C1078       C  0.04048850  0.76532347  0.67758580    -0.18800
C1079       C  0.07770270  0.78097638  0.69938745    -0.20700
C1080       C  0.10273369  0.77773574  0.70671157    -0.13200
C1081       C  0.11514148  0.75462505  0.70246340     0.03500
C1082       C  0.10155641  0.73429074  0.69181088    -0.25300
H1083       H  0.03032395  0.70745997  0.65077385     0.08500
H1084       H  0.07181271  0.69942877  0.66961300     0.12100
H1085       H  0.03198427  0.78392069  0.67910813     0.12100
H1086       H  0.06885376  0.79923375  0.70221269     0.11800
H1087       H  0.11255311  0.79360411  0.71516519     0.12400
H1088       H  0.11073296  0.71623857  0.68870860     0.14300
C1089       C  0.05367884  0.51303157  0.11206480    -0.05700
C1090       C  0.04625190  0.53483497  0.12548780    -0.05600
C1091       C  0.05269344  0.53813895  0.15088332    -0.23800
C1092       C  0.06678924  0.51974066  0.16358934     0.18400
C1093       C  0.07428093  0.49752093  0.15067068     0.15600
C1094       C  0.06774755  0.49428977  0.12482065    -0.18800
C1095       C  0.08858288  0.47932085  0.16380633    -0.20700
C1096       C  0.09657523  0.48386326  0.18885130    -0.13200
C1097       C  0.09022435  0.50656939  0.20118444     0.03500
C1098       C  0.07438359  0.52386051  0.18873839    -0.25300
H1099       H  0.03554416  0.54968324  0.11622816     0.08500
H1100       H  0.04692157  0.55531464  0.16049087     0.12100
H1101       H  0.07345608  0.47735033  0.11477273     0.12100
H1102       H  0.09443103  0.46207528  0.15440063     0.11800
H1103       H  0.10900955  0.47035211  0.19795052     0.12400
H1104       H  0.06914262  0.54130618  0.19819497     0.14300
C1105       C  0.01438853  0.62098121  0.55522098    -0.05700
C1106       C  0.02757236  0.64056968  0.54291813    -0.05600
C1107       C  0.02551837  0.66564674  0.55109474    -0.23800
C1108       C  0.01024197  0.67176061  0.57178362     0.18400
C1109       C  0.99712459  0.65225426  0.58445749     0.15600
C1110       C  0.99924276  0.62705014  0.57614399    -0.18800
C1111       C  0.98199309  0.65829873  0.60519766    -0.20700
C1112       C  0.97978175  0.68334412  0.61328566    -0.13200
C1113       C  0.99255314  0.70309293  0.60088935     0.03500
C1114       C  0.00787818  0.69701240  0.58002393    -0.25300
H1115       H  0.03940047  0.63658361  0.52672367     0.08500
H1116       H  0.03579223  0.68026983  0.54113173     0.12100
H1117       H  0.98897278  0.61224498  0.58585870     0.12100
H1118       H  0.97176050  0.64365403  0.61518711     0.11800
H1119       H  0.96774398  0.68702045  0.62913377     0.12400
H1120       H  0.01832069  0.71175297  0.57044082     0.14300
C1121       C  0.06942829  0.49087521  0.38618370    -0.05700
C1122       C  0.09277522  0.50336781  0.38638841    -0.05600
C1123       C  0.10566325  0.50796189  0.36394360    -0.23800
C1124       C  0.09547387  0.50035443  0.34065008     0.18400
C1125       C  0.07241845  0.48715397  0.33987905     0.15600
C1126       C  0.05952973  0.48229636  0.36276644    -0.18800
C1127       C  0.06251370  0.47976553  0.31615364    -0.20700
C1128       C  0.07477077  0.48649349  0.29351425    -0.13200
C1129       C  0.09707460  0.50064836  0.29433487     0.03500
C1130       C  0.10771871  0.50659201  0.31808071    -0.25300
H1131       H  0.10106303  0.51002738  0.40398842     0.08500
H1132       H  0.12338343  0.51803358  0.36477876     0.12100
H1133       H  0.04159974  0.47260143  0.36226011     0.12100
H1134       H  0.04495774  0.46945367  0.31508002     0.11800
H1135       H  0.06632079  0.48154824  0.27543436     0.12400
H1136       H  0.12536016  0.51681592  0.31901611     0.14300
C1137       C  0.50332492  0.69792384  0.89424085    -0.05700
C1138       C  0.51508958  0.70024860  0.91806705    -0.05600
C1139       C  0.52236515  0.67855475  0.93173849    -0.23800
C1140       C  0.51815290  0.65424223  0.92164733     0.18400
C1141       C  0.50689921  0.65198332  0.89739142     0.15600
C1142       C  0.49977113  0.67366665  0.88391327    -0.18800
C1143       C  0.50256484  0.62803712  0.88697590    -0.20700
C1144       C  0.50878843  0.60633832  0.90061722    -0.13200
C1145       C  0.51963948  0.60798727  0.92498583     0.03500
C1146       C  0.52460827  0.63215049  0.93533133    -0.25300
H1147       H  0.51808714  0.71876295  0.92635386     0.08500
H1148       H  0.53101574  0.68077807  0.95027605     0.12100
H1149       H  0.49135088  0.67160794  0.86522815     0.12100
H1150       H  0.49400997  0.62605612  0.86835310     0.11800
H1151       H  0.50483250  0.58812887  0.89205061     0.12400
H1152       H  0.53286063  0.63376240  0.95412449     0.14300
C1153       C  0.49708817  0.29151303  0.08905474    -0.05700
C1154       C  0.48014101  0.29573772  0.06895237    -0.05600
C1155       C  0.47818247  0.31961240  0.05766245    -0.23800
C1156       C  0.49321510  0.33971762  0.06619610     0.18400
C1157       C  0.51062435  0.33564529  0.08612018     0.15600
C1158       C  0.51244746  0.31157227  0.09742941    -0.18800
C1159       C  0.52571501  0.35579802  0.09450794    -0.20700
C1160       C  0.52347604  0.37979561  0.08336340    -0.13200
C1161       C  0.50611806  0.38412158  0.06358739     0.03500
C1162       C  0.49104785  0.36382478  0.05514475    -0.25300
H1163       H  0.46783846  0.28074642  0.06243837     0.08500
H1164       H  0.46470264  0.32241900  0.04242130     0.12100
H1165       H  0.52578402  0.30847028  0.11275125     0.12100
H1166       H  0.53923168  0.35301484  0.10971953     0.11800
H1167       H  0.53543968  0.39494125  0.09016051     0.12400
H1168       H  0.47758840  0.36671245  0.03989033     0.14300
C1169       C  0.48774113  0.87945662  0.93121615    -0.05700
C1170       C  0.46446126  0.86733000  0.93457000    -0.05600
C1171       C  0.46102820  0.84224362  0.92711723    -0.23800
C1172       C  0.48080993  0.82866504  0.91618174     0.18400
C1173       C  0.50442416  0.84038882  0.91289482     0.15600
C1174       C  0.50775124  0.86576246  0.92038316    -0.18800
C1175       C  0.52410744  0.82659337  0.90181316    -0.20700
C1176       C  0.52007163  0.80185590  0.89308037    -0.13200
C1177       C  0.49634065  0.79048214  0.89540227     0.03500
C1178       C  0.47705149  0.80379043  0.90776556    -0.25300
H1179       H  0.44871393  0.87730959  0.94284535     0.08500
H1180       H  0.44278977  0.83353224  0.92970041     0.12100
H1181       H  0.52584675  0.87477875  0.91781267     0.12100
H1182       H  0.54237653  0.83520482  0.89916672     0.11800
H1183       H  0.53512188  0.79217493  0.88328570     0.12400
H1184       H  0.45872809  0.79511723  0.90991041     0.14300
C1185       C  0.51071385  0.11050743  0.05323263    -0.05700
C1186       C  0.53247265  0.12537940  0.05067023    -0.05600
C1187       C  0.53294381  0.15040845  0.05954428    -0.23800
C1188       C  0.51169688  0.16098090  0.07122001     0.18400
C1189       C  0.48964559  0.14636247  0.07331643     0.15600
C1190       C  0.48924134  0.12141931  0.06427593    -0.18800
C1191       C  0.46833213  0.15678972  0.08469113    -0.20700
C1192       C  0.46913401  0.18102503  0.09515286    -0.13200
C1193       C  0.49141807  0.19549354  0.09473223     0.03500
C1194       C  0.51226846  0.18560754  0.08143570    -0.25300
H1195       H  0.54920991  0.11760667  0.04202805     0.08500
H1196       H  0.55004156  0.16134675  0.05763886     0.12100
H1197       H  0.47217113  0.11041217  0.06617528     0.12100
H1198       H  0.45104660  0.14602555  0.08585112     0.11800
H1199       H  0.45198278  0.18805807  0.10331796     0.12400
H1200       H  0.52932111  0.19670859  0.08000108     0.14300
C1201       C  0.27761133  0.09902932  0.49585047    -0.05700
C1202       C  0.28372290  0.09114993  0.47107989    -0.05600
C1203       C  0.30711809  0.07987909  0.46591454    -0.23800
C1204       C  0.32493929  0.07631930  0.48540983     0.18400
C1205       C  0.31826010  0.08265231  0.51053630     0.15600
C1206       C  0.29456123  0.09298808  0.51563939    -0.18800
C1207       C  0.33571833  0.07954837  0.53022983    -0.20700
C1208       C  0.35990236  0.07098385  0.52508953    -0.13200
C1209       C  0.36724389  0.06482143  0.50017948     0.03500
C1210       C  0.34938269  0.06705496  0.48035080    -0.25300
H1211       H  0.27093487  0.09443001  0.45544279     0.08500
H1212       H  0.31158703  0.07476961  0.44652625     0.12100
H1213       H  0.28987750  0.09719212  0.53516834     0.12100
H1214       H  0.33086347  0.08432121  0.54962125     0.11800
H1215       H  0.37293374  0.06914230  0.54085479     0.12400
H1216       H  0.35465110  0.06227807  0.46107981     0.14300
C1217       C  0.98370944  0.89572624  0.57769361    -0.05700
C1218       C  0.98316879  0.89301365  0.60414397    -0.05600
C1219       C  0.98503894  0.86910117  0.61518621    -0.23800
C1220       C  0.98792074  0.84758037  0.59989614     0.18400
C1221       C  0.98905335  0.85006070  0.57323037     0.15600
C1222       C  0.98671604  0.87425138  0.56219358    -0.18800
C1223       C  0.99235173  0.82828366  0.55824306    -0.20700
C1224       C  0.99364542  0.80420429  0.56952601    -0.13200
C1225       C  0.99164913  0.80154328  0.59604674     0.03500
C1226       C  0.98929244  0.82359125  0.61096192    -0.25300
H1227       H  0.98116375  0.90946909  0.61624906     0.08500
H1228       H  0.98425419  0.86743724  0.63568910     0.12100
H1229       H  0.98757117  0.87645879  0.54173917     0.12100
H1230       H  0.99350820  0.82983465  0.53775896     0.11800
H1231       H  0.99553209  0.78790728  0.55732270     0.12400
H1232       H  0.98775425  0.82190669  0.63143823     0.14300
C1233       C  0.18557014  0.10499255  0.49700348    -0.05700
C1234       C  0.17423733  0.10234977  0.47299424    -0.05600
C1235       C  0.14945158  0.09323140  0.47078655    -0.23800
C1236       C  0.13551072  0.08692543  0.49259342     0.18400
C1237       C  0.14729922  0.08843803  0.51662061     0.15600
C1238       C  0.17222791  0.09679212  0.51856154    -0.18800
C1239       C  0.13374715  0.08246409  0.53855962    -0.20700
C1240       C  0.10859245  0.07522686  0.53688231    -0.13200
C1241       C  0.09627190  0.07376308  0.51323765     0.03500
C1242       C  0.10997946  0.07958269  0.49100952    -0.25300
H1243       H  0.18398123  0.10861859  0.45611707     0.08500
H1244       H  0.14087312  0.09203822  0.45212042     0.12100
H1245       H  0.18089143  0.09812723  0.53720205     0.12100
H1246       H  0.14254290  0.08366880  0.55713439     0.11800
H1247       H  0.09869177  0.07089848  0.55427535     0.12400
H1248       H  0.10087224  0.07832970  0.47259436     0.14300
C1249       C  0.40249454  0.00718734  0.19673782    -0.05700
C1250       C  0.41200974  0.98277604  0.19161518    -0.05600
C1251       C  0.42402566  0.97741497  0.16864484    -0.23800
C1252       C  0.42758421  0.99656148  0.15060474     0.18400
C1253       C  0.42079720  0.02167439  0.15677043     0.15600
C1254       C  0.40860696  0.02687473  0.17977794    -0.18800
C1255       C  0.42533682  0.04113808  0.13934078    -0.20700
C1256       C  0.43533984  0.03564696  0.11554393    -0.13200
C1257       C  0.44075703  0.01055695  0.10851621     0.03500
C1258       C  0.43729429  0.99105795  0.12637021    -0.25300
H1259       H  0.40855975  0.96736697  0.20471840     0.08500
H1260       H  0.42974426  0.95814013  0.16465731     0.12100
H1261       H  0.40341182  0.04620308  0.18368791     0.12100
H1262       H  0.42055524  0.06056009  0.14385104     0.11800
H1263       H  0.43806652  0.05105248  0.10225800     0.12400
H1264       H  0.44194275  0.97171981  0.12135549     0.14300
C1265       C  0.38536412  0.00945496  0.29192273    -0.05700
C1266       C  0.37624859  0.02953184  0.30673540    -0.05600
C1267       C  0.38099722  0.03043894  0.33280526    -0.23800
C1268       C  0.39462140  0.01101477  0.34463638     0.18400
C1269       C  0.40378806  0.99060999  0.32990261     0.15600
C1270       C  0.39936641  0.99009967  0.30351922    -0.18800
C1271       C  0.41704238  0.97101408  0.34187554    -0.20700
C1272       C  0.42151761  0.97179931  0.36805138    -0.13200
C1273       C  0.41294706  0.99226231  0.38284777     0.03500
C1274       C  0.39929487  0.01174813  0.37092402    -0.25300
H1275       H  0.36541997  0.04463065  0.29805442     0.08500
H1276       H  0.37382335  0.04622126  0.34373797     0.12100
H1277       H  0.40613386  0.97441371  0.29216744     0.12100
H1278       H  0.42411765  0.95516119  0.33097907     0.11800
H1279       H  0.43222027  0.95655069  0.37661099     0.12400
H1280       H  0.39262436  0.02767744  0.38198468     0.14300
C1281       C  0.21178753  0.41600147  0.00944374    -0.05700
C1282       C  0.20783248  0.43668920  0.02575463    -0.05600
C1283       C  0.18355993  0.44577688  0.03025030    -0.23800
C1284       C  0.16274569  0.43440759  0.01845741     0.18400
C1285       C  0.16648602  0.41358016  0.00206613     0.15600
C1286       C  0.19092455  0.40450155  0.99770828    -0.18800
C1287       C  0.14572670  0.40231365  0.99012208    -0.20700
C1288       C  0.12153288  0.41186054  0.99397217    -0.13200
C1289       C  0.11752172  0.43280584  0.00996771     0.03500
C1290       C  0.13832603  0.44376878  0.02244366    -0.25300
H1291       H  0.22348526  0.44558424  0.03545223     0.08500
H1292       H  0.18107695  0.46171066  0.04294989     0.12100
H1293       H  0.19369961  0.38871896  0.98487641     0.12100
H1294       H  0.14822972  0.38631358  0.97750885     0.11800
H1295       H  0.10597214  0.40303902  0.98404354     0.12400
H1296       H  0.13565391  0.46001316  0.03471139     0.14300
C1297       C  0.30845414  0.41894208  0.00177827    -0.05700
C1298       C  0.31062876  0.44471392  0.99534415    -0.05600
C1299       C  0.33432963  0.45554465  0.99143153    -0.23800
C1300       C  0.35621053  0.44086097  0.99399581     0.18400
C1301       C  0.35421188  0.41518511  0.00101598     0.15600
C1302       C  0.33054758  0.40442144  0.00436074    -0.18800
C1303       C  0.37589853  0.40044288  0.00419269    -0.20700
C1304       C  0.39952030  0.41098378  0.00015000    -0.13200
C1305       C  0.40178695  0.43626301  0.99236389     0.03500
C1306       C  0.38003684  0.45120249  0.98937745    -0.25300
H1307       H  0.29421733  0.45637378  0.99228103     0.08500
H1308       H  0.33552316  0.47529093  0.98600716     0.12100
H1309       H  0.32928164  0.38435994  0.00850229     0.12100
H1310       H  0.37458631  0.38074174  0.00976464     0.11800
H1311       H  0.41603234  0.39923124  0.00269424     0.12400
H1312       H  0.38168533  0.47087775  0.98377234     0.14300
C1313       C  0.18559412  0.38005684  0.23878032    -0.05700
C1314       C  0.16352771  0.38106008  0.25339518    -0.05600
C1315       C  0.15075211  0.40385206  0.25697343    -0.23800
C1316       C  0.15966340  0.42620893  0.24595099     0.18400
C1317       C  0.18153835  0.42555154  0.23086492     0.15600
C1318       C  0.19439685  0.40249188  0.22736868    -0.18800
C1319       C  0.19024204  0.44803575  0.21976209    -0.20700
C1320       C  0.17746780  0.47089507  0.22367276    -0.13200
C1321       C  0.15576884  0.47174664  0.23881085     0.03500
C1322       C  0.14707398  0.44921064  0.24993165    -0.25300
H1323       H  0.15620826  0.36420214  0.26241647     0.08500
H1324       H  0.13394644  0.40400134  0.26851572     0.12100
H1325       H  0.21130480  0.40208442  0.21598381     0.12100
H1326       H  0.20689677  0.44794238  0.20800925     0.11800
H1327       H  0.18438923  0.48783331  0.21450598     0.12400
H1328       H  0.13071340  0.44952091  0.26208356     0.14300
C1329       C  0.22537161  0.20162713  0.36361047    -0.05700
C1330       C  0.20613156  0.21035672  0.37972044    -0.05600
C1331       C  0.20406681  0.20155751  0.40459325    -0.23800
C1332       C  0.22115780  0.18375048  0.41404184     0.18400
C1333       C  0.24025186  0.17426121  0.39800703     0.15600
C1334       C  0.24223694  0.18321416  0.37285151    -0.18800
C1335       C  0.25724714  0.15630438  0.40762378    -0.20700
C1336       C  0.25538329  0.14799615  0.43280207    -0.13200
C1337       C  0.23660397  0.15749656  0.44881345     0.03500
C1338       C  0.21955794  0.17544578  0.43934094    -0.25300
H1339       H  0.19270358  0.22437856  0.37322395     0.08500
H1340       H  0.18922795  0.20891860  0.41653369     0.12100
H1341       H  0.25715856  0.17629349  0.36075010     0.12100
H1342       H  0.27211434  0.14887357  0.39577212     0.11800
H1343       H  0.26908423  0.13468252  0.43997021     0.12400
H1344       H  0.20500313  0.18280838  0.45165603     0.14300
C1345       C  0.37324400  0.26002137  0.20399786    -0.05700
C1346       C  0.39209314  0.24857498  0.21900278    -0.05600
C1347       C  0.41688655  0.24707159  0.21058164    -0.23800
C1348       C  0.42354444  0.25694219  0.18688826     0.18400
C1349       C  0.40523147  0.26972390  0.17208950     0.15600
C1350       C  0.38019071  0.27129511  0.18077024    -0.18800
C1351       C  0.41208850  0.27958833  0.14833362    -0.20700
C1352       C  0.43627710  0.27542597  0.13874856    -0.13200
C1353       C  0.45405607  0.26148716  0.15276673     0.03500
C1354       C  0.44780653  0.25291309  0.17714539    -0.25300
H1355       H  0.38758207  0.24011070  0.23715293     0.08500
H1356       H  0.43070604  0.23745331  0.22230297     0.12100
H1357       H  0.36601994  0.28035369  0.16902209     0.12100
H1358       H  0.39841923  0.28946543  0.13665731     0.11800
H1359       H  0.44058931  0.28159416  0.11962657     0.12400
H1360       H  0.46127631  0.24162627  0.18774857     0.14300
C1361       C  0.34000927  0.06139064  0.24732130    -0.05700
C1362       C  0.31585412  0.06108811  0.25797072    -0.05600
C1363       C  0.30386230  0.08373534  0.26476318    -0.23800
C1364       C  0.31586343  0.10712976  0.26113133     0.18400
C1365       C  0.34030995  0.10755967  0.25081109     0.15600
C1366       C  0.35220165  0.08481349  0.24411716    -0.18800
C1367       C  0.35245043  0.13076818  0.24710004    -0.20700
C1368       C  0.34030207  0.15344224  0.25294777    -0.13200
C1369       C  0.31579589  0.15348545  0.26287132     0.03500
C1370       C  0.30378874  0.13009481  0.26726010    -0.25300
H1371       H  0.30603045  0.04336587  0.26066110     0.08500
H1372       H  0.28512117  0.08295863  0.27266468     0.12100
H1373       H  0.37112324  0.08540486  0.23663363     0.12100
H1374       H  0.37124068  0.13142281  0.23928775     0.11800
H1375       H  0.35008557  0.17104912  0.24940453     0.12400
H1376       H  0.28486362  0.12975990  0.27476005     0.14300
C1377       C  0.25612147  0.35673212  0.04824865    -0.05700
C1378       C  0.26087931  0.33064618  0.04839799    -0.05600
C1379       C  0.26386050  0.31777730  0.07151850    -0.23800
C1380       C  0.26261422  0.33105947  0.09462470     0.18400
C1381       C  0.25660455  0.35714221  0.09437588     0.15600
C1382       C  0.25300293  0.36963760  0.07125374    -0.18800
C1383       C  0.25547050  0.37067238  0.11717716    -0.20700
C1384       C  0.26039488  0.35856186  0.14015167    -0.13200
C1385       C  0.26678236  0.33277112  0.14076165     0.03500
C1386       C  0.26782746  0.31901074  0.11790455    -0.25300
H1387       H  0.26389127  0.32064007  0.03071444     0.08500
H1388       H  0.26832516  0.29776918  0.07129832     0.12100
H1389       H  0.24978906  0.38992677  0.07102624     0.12100
H1390       H  0.25094744  0.39067745  0.11723427     0.11800
H1391       H  0.25927201  0.36943080  0.15755969     0.12400
H1392       H  0.27228063  0.29898744  0.11829870     0.14300
C1393       C  0.99173903  0.29828579  0.40113289    -0.05700
C1394       C  0.97936817  0.29744325  0.42463952    -0.05600
C1395       C  0.97578423  0.31973061  0.43879248    -0.23800
C1396       C  0.98467020  0.34310438  0.42965842     0.18400
C1397       C  0.99637987  0.34394348  0.40564535     0.15600
C1398       C  0.99937139  0.32180752  0.39149463    -0.18800
C1399       C  0.00562295  0.36680886  0.39624811    -0.20700
C1400       C  0.00373283  0.38877185  0.41060351    -0.13200
C1401       C  0.99231986  0.38855859  0.43466896     0.03500
C1402       C  0.98251435  0.36556301  0.44405750    -0.25300
H1403       H  0.97336624  0.27950688  0.43248823     0.08500
H1404       H  0.96667531  0.31859000  0.45711522     0.12100
H1405       H  0.00833662  0.32284180  0.37307117     0.12100
H1406       H  0.01466323  0.36767171  0.37786055     0.11800
H1407       H  0.01129216  0.40606184  0.40266942     0.12400
H1408       H  0.97363524  0.36506544  0.46253265     0.14300
C1409       C  0.99411612  0.20962568  0.41278396    -0.05700
C1410       C  0.01116823  0.20544038  0.43281170    -0.05600
C1411       C  0.01148256  0.18241209  0.44576303    -0.23800
C1412       C  0.99491492  0.16308594  0.43864290     0.18400
C1413       C  0.97658389  0.16777139  0.41960104     0.15600
C1414       C  0.97607756  0.19121042  0.40698603    -0.18800
C1415       C  0.96009756  0.14840876  0.41243556    -0.20700
C1416       C  0.96222190  0.12445819  0.42342850    -0.13200
C1417       C  0.98094788  0.11932032  0.44173742     0.03500
C1418       C  0.99703073  0.13890151  0.44952714    -0.25300
H1419       H  0.02547149  0.21938783  0.43715601     0.08500
H1420       H  0.02555256  0.17925693  0.46037872     0.12100
H1421       H  0.96330685  0.19420944  0.39113985     0.12100
H1422       H  0.94590521  0.15161888  0.39795058     0.11800
H1423       H  0.94940114  0.10977728  0.41721664     0.12400
H1424       H  0.01128413  0.13529266  0.46386896     0.14300
C1425       C  0.05212937  0.24827360  0.34895037    -0.05700
C1426       C  0.07319534  0.23860446  0.36222521    -0.05600
C1427       C  0.09733681  0.24095286  0.35255269    -0.23800
C1428       C  0.10135177  0.25400688  0.32990242     0.18400
C1429       C  0.08076058  0.26462072  0.31661541     0.15600
C1430       C  0.05629939  0.26171067  0.32620399    -0.18800
C1431       C  0.08514411  0.27848824  0.29434594    -0.20700
C1432       C  0.10968523  0.28189558  0.28552089    -0.13200
C1433       C  0.13024803  0.27133744  0.29871469     0.03500
C1434       C  0.12580834  0.25725469  0.32084334    -0.25300
H1435       H  0.07154882  0.23006665  0.38076690     0.08500
H1436       H  0.11300772  0.23325836  0.36329813     0.12100
H1437       H  0.04063916  0.27055777  0.31640419     0.12100
H1438       H  0.06964801  0.28687520  0.28388936     0.11800
H1439       H  0.11255161  0.29279424  0.26835395     0.12400
H1440       H  0.14143438  0.24911303  0.33133275     0.14300
C1441       C  0.89890873  0.00279794  0.20642711    -0.05700
C1442       C  0.88656522  0.01891241  0.18918281    -0.05600
C1443       C  0.89414378  0.02025429  0.16391491    -0.23800
C1444       C  0.91402915  0.00521836  0.15532748     0.18400
C1445       C  0.92676698  0.98905296  0.17254905     0.15600
C1446       C  0.91933706  0.98819143  0.19814683    -0.18800
C1447       C  0.94636012  0.97370464  0.16370894    -0.20700
C1448       C  0.95308066  0.97417938  0.13805518    -0.13200
C1449       C  0.94055935  0.99025041  0.12082214     0.03500
C1450       C  0.92114094  0.00588760  0.12971895    -0.25300
H1451       H  0.87097559  0.03057265  0.19528399     0.08500
H1452       H  0.88421865  0.03279469  0.15101619     0.12100
H1453       H  0.92879526  0.97559503  0.21135675     0.12100
H1454       H  0.95635241  0.96119221  0.17657729     0.11800
H1455       H  0.96829000  0.96212572  0.13174772     0.12400
H1456       H  0.91129817  0.01834008  0.11665279     0.14300
C1457       C  0.91560069  0.00999062  0.39978292    -0.05700
C1458       C  0.88983809  0.00614549  0.39603232    -0.05600
C1459       C  0.87998544  0.00483494  0.37156971    -0.23800
C1460       C  0.89593947  0.00659668  0.35057258     0.18400
C1461       C  0.92200007  0.01020564  0.35404361     0.15600
C1462       C  0.93169199  0.01238341  0.37881634    -0.18800
C1463       C  0.93775786  0.01111994  0.33269429    -0.20700
C1464       C  0.92772174  0.00839454  0.30812858    -0.13200
C1465       C  0.90170975  0.00504769  0.30465191     0.03500
C1466       C  0.88610258  0.00444470  0.32615562    -0.25300
H1467       H  0.87734637  0.00419194  0.41210759     0.08500
H1468       H  0.85996153  0.00197004  0.36907077     0.12100
H1469       H  0.95169204  0.01498309  0.38184574     0.12100
H1470       H  0.95782135  0.01379117  0.33500764     0.11800
H1471       H  0.94033071  0.00923760  0.29214757     0.12400
H1472       H  0.86597415  0.00209594  0.32375871     0.14300
C1473       C  0.84413527  0.04715527  0.24394521    -0.05700
C1474       C  0.81966937  0.04671450  0.23398716    -0.05600
C1475       C  0.80748446  0.06946490  0.22774561    -0.23800
C1476       C  0.81969768  0.09279008  0.23151776     0.18400
C1477       C  0.84481619  0.09302662  0.24029473     0.15600
C1478       C  0.85692205  0.07030068  0.24593384    -0.18800
C1479       C  0.85720781  0.11601421  0.24438815    -0.20700
C1480       C  0.84447874  0.13876879  0.24097860    -0.13200
C1481       C  0.81926376  0.13897155  0.23298849     0.03500
C1482       C  0.80711806  0.11587416  0.22757274    -0.25300
H1483       H  0.80971046  0.02895311  0.23201365     0.08500
H1484       H  0.78829448  0.06887620  0.22080848     0.12100
H1485       H  0.87616674  0.07068135  0.25281314     0.12100
H1486       H  0.87653430  0.11639250  0.25097105     0.11800
H1487       H  0.85435864  0.15627280  0.24485528     0.12400
H1488       H  0.78768987  0.11582567  0.22129074     0.14300
C1489       C  0.86662170  0.24682818  0.30751049    -0.05700
C1490       C  0.86877957  0.26557416  0.32643229    -0.05600
C1491       C  0.89135624  0.26914180  0.33970872    -0.23800
C1492       C  0.91235454  0.25402982  0.33442587     0.18400
C1493       C  0.91052584  0.23520940  0.31540088     0.15600
C1494       C  0.88774755  0.23172211  0.30209855    -0.18800
C1495       C  0.93155912  0.22020362  0.30996028    -0.20700
C1496       C  0.95420589  0.22392783  0.32301683    -0.13200
C1497       C  0.95630196  0.24257231  0.34196317     0.03500
C1498       C  0.93515932  0.25746287  0.34773541    -0.25300
H1499       H  0.85296433  0.27762875  0.33098932     0.08500
H1500       H  0.89237624  0.28374801  0.35412256     0.12100
H1501       H  0.88648368  0.21719944  0.28760982     0.12100
H1502       H  0.93052936  0.20560892  0.29553794     0.11800
H1503       H  0.97008838  0.21195834  0.31848165     0.12400
H1504       H  0.93660015  0.27200543  0.36219278     0.14300
C1505       C  0.63935506  0.25652750  0.17398503    -0.05700
C1506       C  0.63694541  0.23726430  0.15568963    -0.05600
C1507       C  0.61371443  0.23182242  0.14458967    -0.23800
C1508       C  0.59222037  0.24542821  0.15155274     0.18400
C1509       C  0.59413139  0.26493963  0.16974040     0.15600
C1510       C  0.61772817  0.27046711  0.18082972    -0.18800
C1511       C  0.57234626  0.27836021  0.17654869    -0.20700
C1512       C  0.54892872  0.27221770  0.16572707    -0.13200
C1513       C  0.54678717  0.25262093  0.14774985     0.03500
C1514       C  0.56886041  0.23966396  0.14055568    -0.25300
H1515       H  0.65305913  0.22611694  0.15003051     0.08500
H1516       H  0.61253501  0.21675330  0.13067130     0.12100
H1517       H  0.61917157  0.28537048  0.19489881     0.12100
H1518       H  0.57336583  0.29346297  0.19042952     0.11800
H1519       H  0.53251063  0.28263149  0.17176928     0.12400
H1520       H  0.56820098  0.22522082  0.12600693     0.14300
C1521       C  0.01494327  0.38361125  0.92718067    -0.05700
C1522       C  0.00289034  0.38406143  0.90332329    -0.05600
C1523       C  0.99722784  0.36174615  0.89049993    -0.23800
C1524       C  0.00332052  0.33830889  0.90121891     0.18400
C1525       C  0.01569426  0.33721847  0.92498791     0.15600
C1526       C  0.02157003  0.35995849  0.93786784    -0.18800
C1527       C  0.02162491  0.31338440  0.93538410    -0.20700
C1528       C  0.01488001  0.29102177  0.92255119    -0.13200
C1529       C  0.00205063  0.29211183  0.89915228     0.03500
C1530       C  0.99689032  0.31597837  0.88847680    -0.25300
H1531       H  0.99755112  0.40179670  0.89449113     0.08500
H1532       H  0.98775332  0.36284298  0.87225604     0.12100
H1533       H  0.03079765  0.35921875  0.95625205     0.12100
H1534       H  0.03119741  0.31203230  0.95354628     0.11800
H1535       H  0.01922164  0.27293504  0.93119130     0.12400
H1536       H  0.98789310  0.31732284  0.87001759     0.14300
C1537       C  0.99581724  0.19918533  0.90412198    -0.05700
C1538       C  0.01996759  0.18844009  0.90406306    -0.05600
C1539       C  0.02393619  0.16403594  0.91365377    -0.23800
C1540       C  0.00377881  0.14995406  0.92333129     0.18400
C1541       C  0.97969454  0.16113878  0.92463932     0.15600
C1542       C  0.97596309  0.18573630  0.91536605    -0.18800
C1543       C  0.95949656  0.14720101  0.93428714    -0.20700
C1544       C  0.96297338  0.12219780  0.94211611    -0.13200
C1545       C  0.98670905  0.11058993  0.94041138     0.03500
C1546       C  0.00713613  0.12473528  0.93117679    -0.25300
H1547       H  0.03550112  0.19824860  0.89523883     0.08500
H1548       H  0.04256798  0.15582841  0.91262049     0.12100
H1549       H  0.95730119  0.19397600  0.91576784     0.12100
H1550       H  0.94091561  0.15551740  0.93544832     0.11800
H1551       H  0.94694146  0.11185594  0.94929504     0.12400
H1552       H  0.02559965  0.11614487  0.93002727     0.14300
C1553       C  0.13472723  0.25090927  0.82793356    -0.05700
C1554       C  0.12814012  0.26911682  0.84623192    -0.05600
C1555       C  0.10377085  0.27021737  0.85586659    -0.23800
C1556       C  0.08537417  0.25333245  0.84718113     0.18400
C1557       C  0.09168138  0.23488534  0.82881904     0.15600
C1558       C  0.11637022  0.23360293  0.81952181    -0.18800
C1559       C  0.07303937  0.21838985  0.81972662    -0.20700
C1560       C  0.04833641  0.22044741  0.82844880    -0.13200
C1561       C  0.04200507  0.23870796  0.84670877     0.03500
C1562       C  0.06067421  0.25489252  0.85623926    -0.25300
H1563       H  0.14184118  0.28267553  0.85306478     0.08500
H1564       H  0.09923027  0.28451771  0.86986971     0.12100
H1565       H  0.12107911  0.21959396  0.80527089     0.12100
H1566       H  0.07749201  0.20412042  0.80566715     0.11800
H1567       H  0.03418378  0.20763800  0.82110127     0.12400
H1568       H  0.05579289  0.26916904  0.87017331     0.14300
C1569       C  0.24864800  0.32451583  0.86586424    -0.05700
C1570       C  0.26326769  0.34664105  0.86540451    -0.05600
C1571       C  0.26658805  0.36112366  0.88712279    -0.23800
C1572       C  0.25579624  0.35355563  0.91002338     0.18400
C1573       C  0.24108758  0.33135480  0.91113914     0.15600
C1574       C  0.23715724  0.31705292  0.88877505    -0.18800
C1575       C  0.23106337  0.32389040  0.93468023    -0.20700
C1576       C  0.23629141  0.33788765  0.95684043    -0.13200
C1577       C  0.25127189  0.35977721  0.95570985     0.03500
C1578       C  0.26005258  0.36782572  0.93188601    -0.25300
H1579       H  0.27210588  0.35294211  0.84801312     0.08500
H1580       H  0.27799340  0.37807781  0.88607402     0.12100
H1581       H  0.22594896  0.29994968  0.88933453     0.12100
H1582       H  0.21969865  0.30695221  0.93605671     0.11800
H1583       H  0.22911787  0.33123121  0.97483895     0.12400
H1584       H  0.27050670  0.38529785  0.93011933     0.14300
C1585       C  0.23653302  0.18926571  0.64033080    -0.05700
C1586       C  0.22963118  0.16375337  0.63834923    -0.05600
C1587       C  0.22847312  0.15199556  0.61476168    -0.23800
C1588       C  0.23352301  0.16576649  0.59266106     0.18400
C1589       C  0.23979136  0.19167011  0.59414151     0.15600
C1590       C  0.24177790  0.20325771  0.61818503    -0.18800
C1591       C  0.24386204  0.20528797  0.57154729    -0.20700
C1592       C  0.24181768  0.19325487  0.54778857    -0.13200
C1593       C  0.23611267  0.16726938  0.54634727     0.03500
C1594       C  0.23232326  0.15382357  0.56910691    -0.25300
H1595       H  0.22557497  0.15274396  0.65520927     0.08500
H1596       H  0.22347247  0.13213621  0.61379489     0.12100
H1597       H  0.24684313  0.22307123  0.61967839     0.12100
H1598       H  0.24860329  0.22521314  0.57225097     0.11800
H1599       H  0.24525942  0.20423844  0.53085714     0.12400
H1600       H  0.22826336  0.13371453  0.56840250     0.14300
C1601       C  0.49967609  0.29299703  0.59121289    -0.05700
C1602       C  0.52487166  0.30051216  0.58880284    -0.05600
C1603       C  0.53103700  0.32333991  0.57673131    -0.23800
C1604       C  0.51202320  0.33901099  0.56687644     0.18400
C1605       C  0.48686650  0.33043472  0.56738203     0.15600
C1606       C  0.48099043  0.30737454  0.57897494    -0.18800
C1607       C  0.46764116  0.34575610  0.55776590    -0.20700
C1608       C  0.47295299  0.37012761  0.54942070    -0.13200
C1609       C  0.49763680  0.37959009  0.55008506     0.03500
C1610       C  0.51738335  0.36354019  0.55778751    -0.25300
H1611       H  0.53973858  0.28957047  0.59737664     0.08500
H1612       H  0.55050328  0.32928740  0.57620448     0.12100
H1613       H  0.46153969  0.30135804  0.57978583     0.12100
H1614       H  0.44830456  0.33933544  0.55777287     0.11800
H1615       H  0.45750856  0.38191703  0.54299923     0.12400
H1616       H  0.53649230  0.37061306  0.55820106     0.14300
C1617       C  0.49270161  0.20292504  0.59582313    -0.05700
C1618       C  0.51602004  0.19053301  0.59723981    -0.05600
C1619       C  0.51906999  0.16640761  0.58660997    -0.23800
C1620       C  0.49882611  0.15435140  0.57438900     0.18400
C1621       C  0.47566031  0.16725783  0.57198388     0.15600
C1622       C  0.47281936  0.19142871  0.58253098    -0.18800
C1623       C  0.45538050  0.15547656  0.55981120    -0.20700
C1624       C  0.45770127  0.13081270  0.55071463    -0.13200
C1625       C  0.48037158  0.11733181  0.55353399     0.03500
C1626       C  0.50107567  0.12945223  0.56509745    -0.25300
H1627       H  0.53151294  0.19894770  0.60763361     0.08500
H1628       H  0.53701461  0.15689226  0.58859840     0.12100
H1629       H  0.45482842  0.20099842  0.58113689     0.12100
H1630       H  0.43753655  0.16517686  0.55772200     0.11800
H1631       H  0.44149492  0.12217314  0.54172857     0.12400
H1632       H  0.51872738  0.11942078  0.56729015     0.14300
C1633       C  0.44143115  0.25595645  0.65568850    -0.05700
C1634       C  0.43985912  0.26322126  0.68140311    -0.05600
C1635       C  0.41645095  0.26657362  0.69304193    -0.23800
C1636       C  0.39412115  0.26242660  0.67937761     0.18400
C1637       C  0.39544562  0.25538212  0.65354631     0.15600
C1638       C  0.41889130  0.25294859  0.64180867    -0.18800
C1639       C  0.37330177  0.25036452  0.63992884    -0.20700
C1640       C  0.35003330  0.25168848  0.65197038    -0.13200
C1641       C  0.34841376  0.25888510  0.67756941     0.03500
C1642       C  0.37051399  0.26471673  0.69112381    -0.25300
H1643       H  0.45650377  0.26692127  0.69258687     0.08500
H1644       H  0.41582638  0.27218095  0.71282751     0.12100
H1645       H  0.41963504  0.24815904  0.62179804     0.12100
H1646       H  0.37401597  0.24483163  0.62012275     0.11800
H1647       H  0.33320467  0.24711696  0.64125811     0.12400
H1648       H  0.36937141  0.26996632  0.71099575     0.14300
C1649       C  0.24355514  0.83790887  0.95841399    -0.05700
C1650       C  0.21929665  0.83226163  0.94910404    -0.05600
C1651       C  0.21584749  0.82238747  0.92470759    -0.23800
C1652       C  0.23661985  0.81685088  0.90944698     0.18400
C1653       C  0.26107248  0.81952643  0.91957639     0.15600
C1654       C  0.26438880  0.82969523  0.94403992    -0.18800
C1655       C  0.28185273  0.81275103  0.90472613    -0.20700
C1656       C  0.27846703  0.80447169  0.87969196    -0.13200
C1657       C  0.25426626  0.80306382  0.86896993     0.03500
C1658       C  0.23336295  0.80887070  0.88419921    -0.25300
H1659       H  0.20281186  0.83675754  0.96019827     0.08500
H1660       H  0.19690978  0.81964954  0.91756994     0.12100
H1661       H  0.28327869  0.83149955  0.95142619     0.12100
H1662       H  0.30075740  0.81433666  0.91229421     0.11800
H1663       H  0.29484683  0.79975027  0.86851884     0.12400
H1664       H  0.21453902  0.80723496  0.87640287     0.14300
C1665       C  0.29822087  0.89544323  0.01300213    -0.05700
C1666       C  0.29875322  0.92028798  0.02250835    -0.05600
C1667       C  0.32165510  0.93351563  0.02459511    -0.23800
C1668       C  0.34439951  0.92215575  0.01705575     0.18400
C1669       C  0.34397270  0.89683915  0.00841204     0.15600
C1670       C  0.32115647  0.88363926  0.00693335    -0.18800
C1671       C  0.36623619  0.88530052  0.00033618    -0.20700
C1672       C  0.38862869  0.89895479  0.99975486    -0.13200
C1673       C  0.38953474  0.92426353  0.00784688     0.03500
C1674       C  0.36739668  0.93568898  0.01716044    -0.25300
H1675       H  0.28140286  0.92983403  0.02730275     0.08500
H1676       H  0.32146696  0.95288441  0.03132970     0.12100
H1677       H  0.32118218  0.86426484  0.00015031     0.12100
H1678       H  0.36620244  0.86587844  0.99371836     0.11800
H1679       H  0.40540607  0.88970034  0.99276593     0.12400
H1680       H  0.36785557  0.95524319  0.02334928     0.14300
C1681       C  0.20594503  0.90540240  0.01186185    -0.05700
C1682       C  0.19233532  0.89895892  0.03372076    -0.05600
C1683       C  0.16754136  0.90735026  0.03678367    -0.23800
C1684       C  0.15596891  0.92230732  0.01799723     0.18400
C1685       C  0.17008993  0.93012314  0.99672792     0.15600
C1686       C  0.19499805  0.92181899  0.99392507    -0.18800
C1687       C  0.15866802  0.94499170  0.97789017    -0.20700
C1688       C  0.13323448  0.95129888  0.97954820    -0.13200
C1689       C  0.11863113  0.94297619  0.00013415     0.03500
C1690       C  0.13035026  0.92883630  0.01961797    -0.25300
H1691       H  0.20020784  0.88594911  0.04753669     0.08500
H1692       H  0.15707247  0.90120534  0.05327114     0.12100
H1693       H  0.20533647  0.92666365  0.97690237     0.12100
H1694       H  0.16927054  0.95127836  0.96154153     0.11800
H1695       H  0.12493382  0.96253214  0.96447297     0.12400
H1696       H  0.11946770  0.92243805  0.03573790     0.14300
C1697       C  0.24387143  0.83148650  0.15152934    -0.05700
C1698       C  0.26004801  0.85173675  0.14586721    -0.05600
C1699       C  0.26320902  0.86003311  0.12091987    -0.23800
C1700       C  0.25044620  0.84813362  0.10091096     0.18400
C1701       C  0.23399205  0.82782424  0.10613842     0.15600
C1702       C  0.23060382  0.81972319  0.13149114    -0.18800
C1703       C  0.22153696  0.81587361  0.08583746    -0.20700
C1704       C  0.22514675  0.82415781  0.06076916    -0.13200
C1705       C  0.24131243  0.84455812  0.05543763     0.03500
C1706       C  0.25404951  0.85623354  0.07576416    -0.25300
H1707       H  0.27048060  0.86115531  0.16084026     0.08500
H1708       H  0.27587014  0.87565236  0.11725789     0.12100
H1709       H  0.21832500  0.80387885  0.13551220     0.12100
H1710       H  0.20888767  0.80021587  0.08934679     0.11800
H1711       H  0.21484747  0.81489476  0.04563174     0.12400
H1712       H  0.26711362  0.87149048  0.07209583     0.14300
C1713       C  0.31254606  0.87682523  0.26187527    -0.05700
C1714       C  0.32717658  0.88639782  0.28204404    -0.05600
C1715       C  0.33439696  0.91184601  0.28255947    -0.23800
C1716       C  0.32722223  0.92824296  0.26286681     0.18400
C1717       C  0.31216071  0.91896996  0.24271586     0.15600
C1718       C  0.30485649  0.89343260  0.24240298    -0.18800
C1719       C  0.30536461  0.93519132  0.22273909    -0.20700
C1720       C  0.31472755  0.95986397  0.22190624    -0.13200
C1721       C  0.33052314  0.96892088  0.24130393     0.03500
C1722       C  0.33593551  0.95335430  0.26226627    -0.25300
H1723       H  0.33313810  0.87418512  0.29746495     0.08500
H1724       H  0.34594664  0.91859531  0.29815475     0.12100
H1725       H  0.29340358  0.88646982  0.22681954     0.12100
H1726       H  0.29381862  0.92842792  0.20714911     0.11800
H1727       H  0.31078597  0.97149439  0.20540422     0.12400
H1728       H  0.34865719  0.96004970  0.27694937     0.14300
C1729       C  0.17668699  0.65573132  0.27155820    -0.05700
C1730       C  0.17532579  0.64184166  0.29429136    -0.05600
C1731       C  0.16773688  0.61649145  0.29403946    -0.23800
C1732       C  0.16170401  0.60450914  0.27100654     0.18400
C1733       C  0.16358350  0.61815929  0.24804821     0.15600
C1734       C  0.17074854  0.64368460  0.24847906    -0.18800
C1735       C  0.15867823  0.60593844  0.22496818    -0.20700
C1736       C  0.15073946  0.58076862  0.22467292    -0.13200
C1737       C  0.14650656  0.56748478  0.24749106     0.03500
C1738       C  0.15357478  0.57922314  0.27056733    -0.25300
H1739       H  0.18003965  0.65061589  0.31228510     0.08500
H1740       H  0.16657246  0.60627500  0.31184739     0.12100
H1741       H  0.17225291  0.65400346  0.23074323     0.12100
H1742       H  0.16083741  0.61589169  0.20710787     0.11800
H1743       H  0.14741184  0.57193498  0.20643402     0.12400
H1744       H  0.15261866  0.56892801  0.28830284     0.14300
C1745       C  0.12995295  0.76809894  0.20033571    -0.05700
C1746       C  0.12177726  0.78909051  0.18595542    -0.05600
C1747       C  0.09790770  0.78949187  0.17458013    -0.23800
C1748       C  0.08157008  0.76884535  0.17714195     0.18400
C1749       C  0.08914470  0.74794604  0.19216235     0.15600
C1750       C  0.11313334  0.74776598  0.20377706    -0.18800
C1751       C  0.07300547  0.72708509  0.19440058    -0.20700
C1752       C  0.05041412  0.72624282  0.18067580    -0.13200
C1753       C  0.04313493  0.74644410  0.16488983     0.03500
C1754       C  0.05841429  0.76813830  0.16388739    -0.25300
H1755       H  0.13405434  0.80515313  0.18305474     0.08500
H1756       H  0.09249058  0.80572228  0.16320983     0.12100
H1757       H  0.11894718  0.73145622  0.21483951     0.12100
H1758       H  0.07838821  0.71089250  0.20583835     0.11800
H1759       H  0.03908805  0.70923452  0.18143011     0.12400
H1760       H  0.05322816  0.78356101  0.15130860     0.14300
C1761       C  0.00724103  0.70142846  0.08862334    -0.05700
C1762       C  0.00373757  0.70375325  0.06211684    -0.05600
C1763       C  0.00065138  0.68223999  0.04681260    -0.23800
C1764       C  0.00081358  0.65796216  0.05761437     0.18400
C1765       C  0.00502872  0.65542773  0.08400952     0.15600
C1766       C  0.00820011  0.67695946  0.09915849    -0.18800
C1767       C  0.00534430  0.63139006  0.09509941    -0.20700
C1768       C  0.00140908  0.60996219  0.08024506    -0.13200
C1769       C  0.99681512  0.61202442  0.05397065     0.03500
C1770       C  0.99650832  0.63620113  0.04268677    -0.25300
H1771       H  0.00212628  0.72198533  0.05304448     0.08500
H1772       H  0.99745317  0.68464671  0.02660967     0.12100
H1773       H  0.01030381  0.67472874  0.11954119     0.12100
H1774       H  0.00854617  0.62913859  0.11532612     0.11800
H1775       H  0.00176169  0.59163669  0.08947890     0.12400
H1776       H  0.99324326  0.63803275  0.02242732     0.14300
C1777       C  0.01367958  0.88454962  0.06861506    -0.05700
C1778       C  0.03235021  0.86901989  0.05796734    -0.05600
C1779       C  0.03411218  0.84346615  0.06454757    -0.23800
C1780       C  0.01738660  0.83296034  0.08209492     0.18400
C1781       C  0.99870519  0.84840718  0.09317989     0.15600
C1782       C  0.99684828  0.87402683  0.08624401    -0.18800
C1783       C  0.98220044  0.83793741  0.11100621    -0.20700
C1784       C  0.98419998  0.81242889  0.11778542    -0.13200
C1785       C  0.00251578  0.79688131  0.10664983     0.03500
C1786       C  0.01905041  0.80727716  0.08874976    -0.25300
H1787       H  0.04542212  0.87653497  0.04419021     0.08500
H1788       H  0.04854760  0.83191186  0.05587276     0.12100
H1789       H  0.98236278  0.88575047  0.09462429     0.12100
H1790       H  0.96773777  0.84945639  0.11968085     0.11800
H1791       H  0.97104276  0.80471252  0.13136793     0.12400
H1792       H  0.03338138  0.79544837  0.08024844     0.14300
C1793       C  0.24310295  0.65239244  0.55251706    -0.05700
C1794       C  0.25902623  0.67239819  0.55940644    -0.05600
C1795       C  0.25527225  0.68556889  0.58199773    -0.23800
C1796       C  0.23574776  0.67862008  0.59830171     0.18400
C1797       C  0.21856683  0.65955044  0.59088841     0.15600
C1798       C  0.22223295  0.64664192  0.56776328    -0.18800
C1799       C  0.19912693  0.65269983  0.60755194    -0.20700
C1800       C  0.19775496  0.66351009  0.63187320    -0.13200
C1801       C  0.21583056  0.68119352  0.63974018     0.03500
C1802       C  0.23420896  0.68928243  0.62258671    -0.25300
H1803       H  0.27519352  0.67695582  0.54784677     0.08500
H1804       H  0.26844979  0.70027798  0.58735142     0.12100
H1805       H  0.21015100  0.63093258  0.56268051     0.12100
H1806       H  0.18568595  0.63823841  0.60220565     0.11800
H1807       H  0.18349386  0.65707191  0.64497647     0.12400
H1808       H  0.24812232  0.70302815  0.62868037     0.14300
C1809       C  0.39880603  0.57498388  0.51479679    -0.05700
C1810       C  0.39581096  0.60091937  0.50991431    -0.05600
C1811       C  0.37194576  0.61190133  0.51000093    -0.23800
C1812       C  0.35062436  0.59691010  0.51409274     0.18400
C1813       C  0.35342850  0.57077700  0.51900466     0.15600
C1814       C  0.37759203  0.56004762  0.51990211    -0.18800
C1815       C  0.33198998  0.55576853  0.52229774    -0.20700
C1816       C  0.30797648  0.56636757  0.52000169    -0.13200
C1817       C  0.30488399  0.59233712  0.51458441     0.03500
C1818       C  0.32653727  0.60753978  0.51261992    -0.25300
H1819       H  0.41199436  0.61266431  0.50592512     0.08500
H1820       H  0.37011139  0.63196751  0.50614201     0.12100
H1821       H  0.37983135  0.53993054  0.52333743     0.12100
H1822       H  0.33377858  0.53572869  0.52631710     0.11800
H1823       H  0.29210924  0.55405297  0.52295044     0.12400
H1824       H  0.32457312  0.62768410  0.50918315     0.14300
C1825       C  0.20953945  0.58805128  0.50100155    -0.05700
C1826       C  0.20822247  0.56839574  0.48305949    -0.05600
C1827       C  0.18514412  0.55740990  0.47675603    -0.23800
C1828       C  0.16304301  0.56579018  0.48845475     0.18400
C1829       C  0.16430968  0.58543130  0.50667632     0.15600
C1830       C  0.18749187  0.59652661  0.51268345    -0.18800
C1831       C  0.14235912  0.59372238  0.51857647    -0.20700
C1832       C  0.11930415  0.58275967  0.51245615    -0.13200
C1833       C  0.11768331  0.56326106  0.49429037     0.03500
C1834       C  0.13973513  0.55485668  0.48232284    -0.25300
H1835       H  0.22499656  0.56191460  0.47347613     0.08500
H1836       H  0.18457506  0.54244921  0.46269068     0.12100
H1837       H  0.18839419  0.61165752  0.52653994     0.12100
H1838       H  0.14301607  0.60865393  0.53267645     0.11800
H1839       H  0.10271087  0.58948123  0.52219567     0.12400
H1840       H  0.13881388  0.53977371  0.46839393     0.14300
C1841       C  0.24938295  0.65071479  0.46289105    -0.05700
C1842       C  0.22485942  0.65152341  0.45283043    -0.05600
C1843       C  0.21994220  0.66366862  0.42963162    -0.23800
C1844       C  0.23949593  0.67508273  0.41596190     0.18400
C1845       C  0.26403202  0.67499827  0.42635476     0.15600
C1846       C  0.26872905  0.66315300  0.44975070    -0.18800
C1847       C  0.28370180  0.68622311  0.41291396    -0.20700
C1848       C  0.27929407  0.69706700  0.38915979    -0.13200
C1849       C  0.25508428  0.69702544  0.37820727     0.03500
C1850       C  0.23512591  0.68613808  0.39193105    -0.25300
H1851       H  0.20960972  0.64189689  0.46231567     0.08500
H1852       H  0.20097092  0.66354920  0.42207067     0.12100
H1853       H  0.28764539  0.66321844  0.45746971     0.12100
H1854       H  0.30262800  0.68631129  0.42061425     0.11800
H1855       H  0.29508590  0.70526353  0.37921345     0.12400
H1856       H  0.21635523  0.68599780  0.38385334     0.14300
C1857       C  0.60652117  0.49074135  0.20384095    -0.05700
C1858       C  0.58625751  0.47386851  0.20138770    -0.05600
C1859       C  0.57431361  0.47046027  0.17794343    -0.23800
C1860       C  0.58240496  0.48389001  0.15651536     0.18400
C1861       C  0.60278158  0.50088439  0.15875135     0.15600
C1862       C  0.61473378  0.50415679  0.18236090    -0.18800
C1863       C  0.61077585  0.51440763  0.13735158    -0.20700
C1864       C  0.59884057  0.51098079  0.11388666    -0.13200
C1865       C  0.57865467  0.49397194  0.11134311     0.03500
C1866       C  0.57047474  0.48057325  0.13290235    -0.25300
H1867       H  0.57974395  0.46313348  0.21759048     0.08500
H1868       H  0.55874900  0.45731574  0.17657668     0.12100
H1869       H  0.63002641  0.51758701  0.18409368     0.12100
H1870       H  0.62630632  0.52759382  0.13873808     0.11800
H1871       H  0.60549075  0.52165189  0.09769418     0.12400
H1872       H  0.55487953  0.46747287  0.13134515     0.14300
C1873       C  0.60655571  0.50097665  0.29925841    -0.05700
C1874       C  0.59752523  0.47716319  0.30713916    -0.05600
C1875       C  0.58595472  0.47411147  0.33065716    -0.23800
C1876       C  0.58251763  0.49495927  0.34664633     0.18400
C1877       C  0.58997333  0.51925619  0.33840843     0.15600
C1878       C  0.60190828  0.52214573  0.31485457    -0.18800
C1879       C  0.58573644  0.54026297  0.35408550    -0.20700
C1880       C  0.57487225  0.53713104  0.37798110    -0.13200
C1881       C  0.56832615  0.51291062  0.38676650     0.03500
C1882       C  0.57194263  0.49189391  0.37081508    -0.25300
H1883       H  0.60021845  0.46062042  0.29530181     0.08500
H1884       H  0.57998342  0.45538510  0.33645399     0.12100
H1885       H  0.60748360  0.54090960  0.30915023     0.12100
H1886       H  0.59111925  0.55908235  0.34801211     0.11800
H1887       H  0.57217220  0.55362945  0.38986617     0.12400
H1888       H  0.56659430  0.47315883  0.37722055     0.14300
C1889       C  0.69552561  0.36838266  0.23950098    -0.05700
C1890       C  0.67583548  0.37281659  0.22217085    -0.05600
C1891       C  0.66634944  0.39725044  0.21865672    -0.23800
C1892       C  0.67620887  0.41755992  0.23263953     0.18400
C1893       C  0.69648680  0.41340268  0.24958431     0.15600
C1894       C  0.70615030  0.38896934  0.25267374    -0.18800
C1895       C  0.70589932  0.43349489  0.26419195    -0.20700
C1896       C  0.69399396  0.45701155  0.26351254    -0.13200
C1897       C  0.67315219  0.46089238  0.24759963     0.03500
C1898       C  0.66505688  0.44155620  0.23129249    -0.25300
H1899       H  0.66756290  0.35736326  0.21153129     0.08500
H1900       H  0.65081332  0.40013007  0.20558432     0.12100
H1901       H  0.72147543  0.38593198  0.26598108     0.12100
H1902       H  0.72145907  0.43060943  0.27723745     0.11800
H1903       H  0.70010286  0.47176001  0.27642968     0.12400
H1904       H  0.64857291  0.44448526  0.21944157     0.14300
C1905       C  0.76056945  0.32077522  0.34980724    -0.05700
C1906       C  0.75474929  0.34671191  0.34962185    -0.05600
C1907       C  0.75226407  0.36000541  0.37238278    -0.23800
C1908       C  0.75514935  0.34746551  0.39568764     0.18400
C1909       C  0.76035807  0.32127345  0.39608454     0.15600
C1910       C  0.76328975  0.30812759  0.37315375    -0.18800
C1911       C  0.76276150  0.30872534  0.41940741    -0.20700
C1912       C  0.76041624  0.32204228  0.44220410    -0.13200
C1913       C  0.75567595  0.34831078  0.44214790     0.03500
C1914       C  0.75312141  0.36075780  0.41858102    -0.25300
H1915       H  0.75253801  0.35681836  0.33184132     0.08500
H1916       H  0.74813866  0.38008535  0.37175690     0.12100
H1917       H  0.76745579  0.28803610  0.37347045     0.12100
H1918       H  0.76673997  0.28861371  0.42003539     0.11800
H1919       H  0.76309471  0.31153273  0.45954535     0.12400
H1920       H  0.74973300  0.38099772  0.41812906     0.14300
C1921       C  0.70634368  0.41005864  0.49389200    -0.05700
C1922       C  0.69617318  0.40885369  0.51843851    -0.05600
C1923       C  0.67097443  0.41544079  0.52262239    -0.23800
C1924       C  0.65553498  0.42304842  0.50225049     0.18400
C1925       C  0.66615989  0.42568429  0.47783932     0.15600
C1926       C  0.69149076  0.41971581  0.47397384    -0.18800
C1927       C  0.65105751  0.43315619  0.45734355    -0.20700
C1928       C  0.62550451  0.43760800  0.46080412    -0.13200
C1929       C  0.61440222  0.43472857  0.48484265     0.03500
C1930       C  0.62963874  0.42756785  0.50563225    -0.25300
H1931       H  0.70716548  0.40126474  0.53404888     0.08500
H1932       H  0.66328867  0.41350342  0.54154181     0.12100
H1933       H  0.69927550  0.42106546  0.45501908     0.12100
H1934       H  0.65894749  0.43526435  0.43851902     0.11800
H1935       H  0.61437285  0.44334162  0.44450286     0.12400
H1936       H  0.62145062  0.42574121  0.52435382     0.14300
C1937       C  0.79988944  0.41191868  0.49616267    -0.05700
C1938       C  0.79904464  0.43584432  0.50773065    -0.05600
C1939       C  0.82142356  0.44865818  0.51388649    -0.23800
C1940       C  0.84493899  0.43760406  0.50871465     0.18400
C1941       C  0.84571961  0.41334141  0.49750525     0.15600
C1942       C  0.82340885  0.40071157  0.49158594    -0.18800
C1943       C  0.86881725  0.40197231  0.49213349    -0.20700
C1944       C  0.89113351  0.41461251  0.49743532    -0.13200
C1945       C  0.89095386  0.43888254  0.50840077     0.03500
C1946       C  0.86767060  0.45025694  0.51428202    -0.25300
H1947       H  0.78114864  0.44478906  0.51156242     0.08500
H1948       H  0.82034492  0.46723882  0.52250692     0.12100
H1949       H  0.82444690  0.38188818  0.48347056     0.12100
H1950       H  0.86964316  0.38334511  0.48355260     0.11800
H1951       H  0.90865684  0.40530243  0.49277861     0.12400
H1952       H  0.86722849  0.46901017  0.52260056     0.14300
C1953       C  0.34015175  0.54381159  0.75701872    -0.05700
C1954       C  0.33545970  0.55465776  0.78100374    -0.05600
C1955       C  0.32209354  0.57730008  0.78311465    -0.23800
C1956       C  0.31284415  0.58944713  0.76135041     0.18400
C1957       C  0.31508374  0.57755331  0.73747552     0.15600
C1958       C  0.32797360  0.55442284  0.73560280    -0.18800
C1959       C  0.30544967  0.58960972  0.71573226    -0.20700
C1960       C  0.29479803  0.61378428  0.71750343    -0.13200
C1961       C  0.29355947  0.62625043  0.74105114     0.03500
C1962       C  0.30203242  0.61358683  0.76301161    -0.25300
H1963       H  0.34249041  0.54606567  0.79826101     0.08500
H1964       H  0.31974437  0.58574322  0.80171306     0.12100
H1965       H  0.32973181  0.54550324  0.71717125     0.12100
H1966       H  0.30688244  0.58070749  0.69725404     0.11800
H1967       H  0.28824936  0.62303416  0.70033894     0.12400
H1968       H  0.30079661  0.62277070  0.78138116     0.14300
C1969       C  0.31113962  0.36537154  0.75994175    -0.05700
C1970       C  0.30290999  0.38128556  0.77967722    -0.05600
C1971       C  0.31191212  0.40603341  0.78186782    -0.23800
C1972       C  0.32955299  0.41531296  0.76453295     0.18400
C1973       C  0.33851254  0.39930195  0.74505289     0.15600
C1974       C  0.32910167  0.37454434  0.74272772    -0.18800
C1975       C  0.35665944  0.40839686  0.72814668    -0.20700
C1976       C  0.36545671  0.43324104  0.73018580    -0.13200
C1977       C  0.35600333  0.44961187  0.74880498     0.03500
C1978       C  0.33820139  0.44039440  0.76617273    -0.25300
H1979       H  0.28914951  0.37473247  0.79326530     0.08500
H1980       H  0.30496011  0.41795403  0.79704043     0.12100
H1981       H  0.33583747  0.36242020  0.72760674     0.12100
H1982       H  0.36389904  0.39637072  0.71320069     0.11800
H1983       H  0.37909028  0.43983484  0.71666124     0.12400
H1984       H  0.33108911  0.45275915  0.78092166     0.14300
C1985       C  0.41519986  0.49604435  0.79131096    -0.05700
C1986       C  0.43946560  0.50619154  0.78938916    -0.05600
C1987       C  0.45502770  0.50784443  0.81094411    -0.23800
C1988       C  0.44631072  0.49973084  0.83477701     0.18400
C1989       C  0.42234516  0.48830914  0.83640044     0.15600
C1990       C  0.40708422  0.48639185  0.81467860    -0.18800
C1991       C  0.41337535  0.48023777  0.85997529    -0.20700
C1992       C  0.42749843  0.48427410  0.88197190    -0.13200
C1993       C  0.45095206  0.49654923  0.88101330     0.03500
C1994       C  0.46052961  0.50378005  0.85713302    -0.25300
H1995       H  0.44575119  0.51422624  0.77158747     0.08500
H1996       H  0.47335390  0.51656713  0.80920874     0.12100
H1997       H  0.38813177  0.47902795  0.81626620     0.12100
H1998       H  0.39509446  0.47136256  0.86151542     0.11800
H1999       H  0.41964078  0.47826000  0.89992417     0.12400
H2000       H  0.47866763  0.51300909  0.85599503     0.14300
C2001       C  0.40748269  0.50494864  0.70235235    -0.05700
C2002       C  0.41651808  0.52806270  0.69276294    -0.05600
C2003       C  0.42742692  0.52943642  0.66880776    -0.23800
C2004       C  0.42973594  0.50767064  0.65389215     0.18400
C2005       C  0.42228641  0.48398270  0.66378901     0.15600
C2006       C  0.41141578  0.48272604  0.68815767    -0.18800
C2007       C  0.42511210  0.46221065  0.64873052    -0.20700
C2008       C  0.43461678  0.46406203  0.62396678    -0.13200
C2009       C  0.44117420  0.48774453  0.61373515     0.03500
C2010       C  0.43895495  0.50940099  0.62905247    -0.25300
H2011       H  0.41442633  0.54538109  0.70354947     0.08500
H2012       H  0.43344190  0.54768376  0.66167512     0.12100
H2013       H  0.40492987  0.46478391  0.69534517     0.12100
H2014       H  0.41964320  0.44382823  0.65595452     0.11800
H2015       H  0.43631183  0.44705567  0.61262334     0.12400
H2016       H  0.44433915  0.52773584  0.62159747     0.14300
C2017       C  0.74693256  0.18328656  0.12845360    -0.05700
C2018       C  0.76507328  0.16399062  0.12637679    -0.05600
C2019       C  0.76867007  0.15133452  0.10335483    -0.23800
C2020       C  0.75421089  0.15774969  0.08196799     0.18400
C2021       C  0.73606124  0.17722736  0.08383222     0.15600
C2022       C  0.73251237  0.18978246  0.10698979    -0.18800
C2023       C  0.72176712  0.18393220  0.06245812    -0.20700
C2024       C  0.72547949  0.17157429  0.03938058    -0.13200
C2025       C  0.74336730  0.15214793  0.03730944     0.03500
C2026       C  0.75761379  0.14515745  0.05872385    -0.25300
H2027       H  0.77658623  0.15869115  0.14255143     0.08500
H2028       H  0.78276968  0.13656876  0.10227820     0.12100
H2029       H  0.71853054  0.20466049  0.10823387     0.12100
H2030       H  0.70775835  0.19878233  0.06356469     0.11800
H2031       H  0.71413367  0.17702155  0.02313581     0.12400
H2032       H  0.77161797  0.13032771  0.05714569     0.14300
C2033       C  0.70585070  0.08829721  0.99646797    -0.05700
C2034       C  0.69372758  0.09071651  0.01998490    -0.05600
C2035       C  0.66922207  0.08146866  0.02321180    -0.23800
C2036       C  0.65638381  0.06991096  0.00287281     0.18400
C2037       C  0.66904484  0.06613697  0.97967366     0.15600
C2038       C  0.69375308  0.07484909  0.97682879    -0.18800
C2039       C  0.65641894  0.05480543  0.95921678    -0.20700
C2040       C  0.63119248  0.04791633  0.96138032    -0.13200
C2041       C  0.61799136  0.05211459  0.98407710     0.03500
C2042       C  0.63094044  0.06280101  0.00497679    -0.25300
H2043       H  0.70251823  0.10114767  0.03533823     0.08500
H2044       H  0.65991509  0.08438528  0.04123436     0.12100
H2045       H  0.70307061  0.07251954  0.95870428     0.12100
H2046       H  0.66590864  0.05176504  0.94130567     0.11800
H2047       H  0.62191394  0.03957446  0.94505738     0.12400
H2048       H  0.62117345  0.06594250  0.02271651     0.14300
C2049       C  0.79769682  0.09444403  0.00485036    -0.05700
C2050       C  0.79688747  0.07046283  0.01634356    -0.05600
C2051       C  0.81930733  0.05747511  0.02214230    -0.23800
C2052       C  0.84277716  0.06829639  0.01637725     0.18400
C2053       C  0.84345975  0.09300534  0.00606464     0.15600
C2054       C  0.82111540  0.10595414  0.00090839    -0.18800
C2055       C  0.86643887  0.10407703  0.99977828    -0.20700
C2056       C  0.88857999  0.09034586  0.00227937    -0.13200
C2057       C  0.88836658  0.06548197  0.01167302     0.03500
C2058       C  0.86547769  0.05469171  0.01958031    -0.25300
H2059       H  0.77900952  0.06134380  0.01977177     0.08500
H2060       H  0.81827165  0.03864557  0.03021612     0.12100
H2061       H  0.82197415  0.12479600  0.99277645     0.12100
H2062       H  0.86720971  0.12304088  0.99196105     0.11800
H2063       H  0.90602759  0.09905230  0.99634582     0.12400
H2064       H  0.86519417  0.03546452  0.02675248     0.14300
C2065       C  0.15123262  0.95161446  0.75040638    -0.05700
C2066       C  0.15656965  0.94063658  0.72660796    -0.05600
C2067       C  0.16440319  0.91540020  0.72472375    -0.23800
C2068       C  0.16792514  0.90070075  0.74663785     0.18400
C2069       C  0.16518851  0.91209989  0.77069974     0.15600
C2070       C  0.15739627  0.93748862  0.77243191    -0.18800
C2071       C  0.16971309  0.89772386  0.79269213    -0.20700
C2072       C  0.17632370  0.87214480  0.79086336    -0.13200
C2073       C  0.17824774  0.86032273  0.76703482     0.03500
C2074       C  0.17417910  0.87485576  0.74493016    -0.25300
H2075       H  0.15362751  0.95123493  0.70924643     0.08500
H2076       H  0.16719097  0.90723360  0.70606940     0.12100
H2077       H  0.15589376  0.94586583  0.79108389     0.12100
H2078       H  0.16786286  0.90618622  0.81133873     0.11800
H2079       H  0.17953775  0.86147211  0.80815034     0.12400
H2080       H  0.17611399  0.86612088  0.72640923     0.14300
C2081       C  0.15257435  0.04880663  0.74713619    -0.05700
C2082       C  0.17382650  0.05269453  0.73179747    -0.05600
C2083       C  0.18409038  0.07701555  0.72888355    -0.23800
C2084       C  0.17341023  0.09788381  0.74141486     0.18400
C2085       C  0.15215102  0.09403988  0.75688355     0.15600
C2086       C  0.14194133  0.06976717  0.75948609    -0.18800
C2087       C  0.14147684  0.11448087  0.76986219    -0.20700
C2088       C  0.15204046  0.13851672  0.76802937    -0.13200
C2089       C  0.17327940  0.14279474  0.75287821     0.03500
C2090       C  0.18371807  0.12240256  0.73920206    -0.25300
H2091       H  0.18227315  0.03704150  0.72168538     0.08500
H2092       H  0.20039791  0.07947790  0.71690132     0.12100
H2093       H  0.12588734  0.06732306  0.77159302     0.12100
H2094       H  0.12512655  0.11181577  0.78175729     0.11800
H2095       H  0.14355395  0.15387361  0.77859335     0.12400
H2096       H  0.20021357  0.12543877  0.72760163     0.14300
C2097       C  0.04466882  0.00413510  0.62449736    -0.05700
C2098       C  0.03849236  0.98204347  0.63808166    -0.05600
C2099       C  0.04652947  0.97867306  0.66305458    -0.23800
C2100       C  0.06102084  0.99726366  0.67500561     0.18400
C2101       C  0.06629203  0.02017725  0.66219728     0.15600
C2102       C  0.05795438  0.02355696  0.63699747    -0.18800
C2103       C  0.08080394  0.03873028  0.67446677    -0.20700
C2104       C  0.09155424  0.03377190  0.69829773    -0.13200
C2105       C  0.08783059  0.01027088  0.71016913     0.03500
C2106       C  0.07155393  0.99260947  0.69897094    -0.25300
H2107       H  0.02784473  0.96694515  0.62923041     0.08500
H2108       H  0.04210722  0.96113042  0.67272326     0.12100
H2109       H  0.06251301  0.04084040  0.62693218     0.12100
H2110       H  0.08487194  0.05652096  0.66511436     0.11800
H2111       H  0.10415586  0.04760534  0.70660113     0.12400
H2112       H  0.06839011  0.97455585  0.70822892     0.14300
C2113       C  0.09387816  0.00986531  0.80034553    -0.05700
C2114       C  0.09259740  0.03459810  0.81008670    -0.05600
C2115       C  0.08239904  0.03913885  0.83421935    -0.23800
C2116       C  0.07370213  0.01890981  0.84910370     0.18400
C2117       C  0.07359422  0.99427151  0.83864445     0.15600
C2118       C  0.08272864  0.99015300  0.81417997    -0.18800
C2119       C  0.06570353  0.97372469  0.85326640    -0.20700
C2120       C  0.05907902  0.97725734  0.87849920    -0.13200
C2121       C  0.05948728  0.00147835  0.88947552     0.03500
C2122       C  0.06606131  0.02251113  0.87447934    -0.25300
H2123       H  0.10052795  0.05024519  0.79977635     0.08500
H2124       H  0.08243895  0.05824285  0.84169339     0.12100
H2125       H  0.08242985  0.97112397  0.80649736     0.12100
H2126       H  0.06550462  0.95474406  0.84546117     0.11800
H2127       H  0.05360597  0.96088203  0.88955962     0.12400
H2128       H  0.06633404  0.04126311  0.88282096     0.14300
C2129       C  0.45614208  0.75975203  0.34626915    -0.05700
C2130       C  0.45196915  0.77498038  0.32465357    -0.05600
C2131       C  0.42762519  0.77910891  0.31521998    -0.23800
C2132       C  0.40678747  0.76817622  0.32717898     0.18400
C2133       C  0.41070229  0.75272301  0.34876424     0.15600
C2134       C  0.43519401  0.74863280  0.35810164    -0.18800
C2135       C  0.39003497  0.74147346  0.36065608    -0.20700
C2136       C  0.36577563  0.74515744  0.35108143    -0.13200
C2137       C  0.36148875  0.76045359  0.32959593     0.03500
C2138       C  0.38216347  0.77220228  0.31785698    -0.25300
H2139       H  0.46744389  0.78429543  0.31525793     0.08500
H2140       H  0.42509973  0.79101611  0.29863946     0.12100
H2141       H  0.43776888  0.73653576  0.37445672     0.12100
H2142       H  0.39264131  0.72959905  0.37725516     0.11800
H2143       H  0.35023809  0.73595359  0.36055504     0.12400
H2144       H  0.37917492  0.78382610  0.30113890     0.14300
C2145       C  0.50055509  0.70553374  0.40229066    -0.05700
C2146       C  0.47620993  0.69570864  0.40508447    -0.05600
C2147       C  0.47237366  0.67242288  0.41721833    -0.23800
C2148       C  0.49287109  0.65848590  0.42663673     0.18400
C2149       C  0.51733280  0.66868272  0.42465989     0.15600
C2150       C  0.52093743  0.69219227  0.41293410    -0.18800
C2151       C  0.53798038  0.65481439  0.43360042    -0.20700
C2152       C  0.53459933  0.63057002  0.44341122    -0.13200
C2153       C  0.51047750  0.61989019  0.44498606     0.03500
C2154       C  0.48952154  0.63422546  0.43718943    -0.25300
H2155       H  0.46020220  0.70550014  0.39707310     0.08500
H2156       H  0.45346461  0.66497786  0.41855611     0.12100
H2157       H  0.53978666  0.69980546  0.41159858     0.12100
H2158       H  0.55684312  0.66240474  0.43230849     0.11800
H2159       H  0.55098420  0.61997636  0.44953834     0.12400
H2160       H  0.47086673  0.62607890  0.43822219     0.14300
C2161       C  0.49665505  0.79436310  0.41160820    -0.05700
C2162       C  0.51306879  0.80076692  0.43153721    -0.05600
C2163       C  0.51142514  0.82442306  0.44324226    -0.23800
C2164       C  0.49377277  0.84221343  0.43463108     0.18400
C2165       C  0.47609333  0.83519027  0.41573168     0.15600
C2166       C  0.47733608  0.81105628  0.40469286    -0.18800
C2167       C  0.45865910  0.85302485  0.40687608    -0.20700
C2168       C  0.45946213  0.87790014  0.41575145    -0.13200
C2169       C  0.47772411  0.88542995  0.43362868     0.03500
C2170       C  0.49442831  0.86726676  0.44351188    -0.25300
H2171       H  0.52825381  0.78810743  0.43679547     0.08500
H2172       H  0.52498418  0.82937376  0.45783591     0.12100
H2173       H  0.46498851  0.80627427  0.38895168     0.12100
H2174       H  0.44493972  0.84796428  0.39247041     0.11800
H2175       H  0.44618855  0.89145755  0.40803456     0.12400
H2176       H  0.50830745  0.87275138  0.45761425     0.14300
C2177       C  0.89566709  0.56474403  0.96530354    -0.05700
C2178       C  0.87750205  0.55495959  0.94840406    -0.05600
C2179       C  0.85260136  0.56320859  0.94919989    -0.23800
C2180       C  0.84522965  0.58150815  0.96686888     0.18400
C2181       C  0.86341070  0.59236474  0.98325882     0.15600
C2182       C  0.88853047  0.58395176  0.98236902    -0.18800
C2183       C  0.85597701  0.61103572  0.00062718    -0.20700
C2184       C  0.83077739  0.61850461  0.00202529    -0.13200
C2185       C  0.81251970  0.60720956  0.98636753     0.03500
C2186       C  0.81990546  0.58883176  0.96866281    -0.25300
H2187       H  0.88236202  0.54033742  0.93487518     0.08500
H2188       H  0.83899804  0.55488531  0.93630009     0.12100
H2189       H  0.90225499  0.59176873  0.99546440     0.12100
H2190       H  0.86958778  0.61967185  0.01330170     0.11800
H2191       H  0.82541695  0.63269396  0.01582871     0.12400
H2192       H  0.80594455  0.58031978  0.95626931     0.14300
C2193       C  0.71704913  0.59324853  0.99661273    -0.05700
C2194       C  0.71759634  0.56661816  0.99799820    -0.05600
C2195       C  0.69523368  0.55282161  0.00069098    -0.23800
C2196       C  0.67194028  0.56532289  0.00166410     0.18400
C2197       C  0.67125050  0.59196975  0.99996312     0.15600
C2198       C  0.69362185  0.60559400  0.99797361    -0.18800
C2199       C  0.64816710  0.60470905  0.00008402    -0.20700
C2200       C  0.62580432  0.59116297  0.00178792    -0.13200
C2201       C  0.62613190  0.56470814  0.00404275     0.03500
C2202       C  0.64930509  0.55179899  0.00415300    -0.25300
H2203       H  0.73506504  0.55626400  0.99739754     0.08500
H2204       H  0.69615249  0.53236923  0.00190356     0.12100
H2205       H  0.69284540  0.62609722  0.99717486     0.12100
H2206       H  0.64739436  0.62515867  0.99865588     0.11800
H2207       H  0.60817338  0.60143019  0.00173695     0.12400
H2208       H  0.64964671  0.53133360  0.00561223     0.14300
C2209       C  0.77634565  0.68952370  0.13024227    -0.05700
C2210       C  0.77218755  0.66326011  0.13108670    -0.05600
C2211       C  0.77101101  0.64900797  0.10892515    -0.23800
C2212       C  0.77357925  0.66072729  0.08528417     0.18400
C2213       C  0.77855537  0.68696544  0.08385614     0.15600
C2214       C  0.78025790  0.70127749  0.10650319    -0.18800
C2215       C  0.78083369  0.69833327  0.05976897    -0.20700
C2216       C  0.77698229  0.68405301  0.03752262    -0.13200
C2217       C  0.77084673  0.65826289  0.03910496     0.03500
C2218       C  0.77018977  0.64662469  0.06307244    -0.25300
H2219       H  0.76948858  0.65366008  0.14905742     0.08500
H2220       H  0.76733091  0.62887903  0.11027271     0.12100
H2221       H  0.78346157  0.72151001  0.10560874     0.12100
H2222       H  0.78478868  0.71837499  0.05815304     0.11800
H2223       H  0.77773582  0.69334837  0.01920467     0.12400
H2224       H  0.76615084  0.62655721  0.06448738     0.14300
C2225       C  0.80494367  0.86781403  0.26773430    -0.05700
C2226       C  0.80453460  0.88056835  0.29111347    -0.05600
C2227       C  0.81283598  0.90547149  0.29294633    -0.23800
C2228       C  0.82147673  0.91815235  0.27134251     0.18400
C2229       C  0.82151755  0.90579877  0.24753117     0.15600
C2230       C  0.81336005  0.88051436  0.24588033    -0.18800
C2231       C  0.83016637  0.91888024  0.22602055    -0.20700
C2232       C  0.84032535  0.94325657  0.22847327    -0.13200
C2233       C  0.84168669  0.95489258  0.25240371     0.03500
C2234       C  0.83098489  0.94268872  0.27346151    -0.25300
H2235       H  0.79795299  0.87111726  0.30809582     0.08500
H2236       H  0.81273347  0.91472645  0.31131878     0.12100
H2237       H  0.81325760  0.87086277  0.22770879     0.12100
H2238       H  0.83004855  0.90987213  0.20753541     0.11800
H2239       H  0.84844640  0.95231749  0.21199276     0.12400
H2240       H  0.83126283  0.95182133  0.29190946     0.14300
C2241       C  0.63047425  0.73722878  0.29200047    -0.05700
C2242       C  0.61318482  0.71763092  0.28740921    -0.05600
C2243       C  0.58922242  0.71830844  0.29831308    -0.23800
C2244       C  0.58209315  0.73874005  0.31374137     0.18400
C2245       C  0.59907314  0.75891192  0.31755680     0.15600
C2246       C  0.62309430  0.75799263  0.30682898    -0.18800
C2247       C  0.59190887  0.77962469  0.33230078    -0.20700
C2248       C  0.56868970  0.77984727  0.34439644    -0.13200
C2249       C  0.55209727  0.75904039  0.34252319     0.03500
C2250       C  0.55862845  0.73907926  0.32597106    -0.25300
H2251       H  0.61844645  0.70145099  0.27597637     0.08500
H2252       H  0.57644391  0.70268572  0.29501838     0.12100
H2253       H  0.63614004  0.77340962  0.31017388     0.12100
H2254       H  0.60444295  0.79560516  0.33478538     0.11800
H2255       H  0.56429606  0.79661122  0.35507642     0.12400
H2256       H  0.54586260  0.72328263  0.32351269     0.14300
C2257       C  0.66079882  0.54898782  0.23530357    -0.05700
C2258       C  0.68623752  0.54748369  0.22859697    -0.05600
C2259       C  0.69957825  0.56946311  0.22235730    -0.23800
C2260       C  0.68751800  0.59312703  0.22261698     0.18400
C2261       C  0.66151767  0.59434231  0.22800549     0.15600
C2262       C  0.64838199  0.57232293  0.23421680    -0.18800
C2263       C  0.64920786  0.61769812  0.22823023    -0.20700
C2264       C  0.66275544  0.63989357  0.22470209    -0.13200
C2265       C  0.68886371  0.63921271  0.22068149     0.03500
C2266       C  0.70106721  0.61566220  0.21872311    -0.25300
H2267       H  0.69601781  0.52950736  0.22931371     0.08500
H2268       H  0.71943363  0.56806007  0.21813270     0.12100
H2269       H  0.62861476  0.57340296  0.23903960     0.12100
H2270       H  0.62924377  0.61887995  0.23203113     0.11800
H2271       H  0.65281513  0.65775653  0.22583784     0.12400
H2272       H  0.72116428  0.61492772  0.21555453     0.14300
C2273       C  0.87070531  0.76787096  0.19544220    -0.05700
C2274       C  0.89085507  0.77596267  0.21087878    -0.05600
C2275       C  0.91579603  0.77327574  0.20274763    -0.23800
C2276       C  0.92107368  0.76266104  0.17891422     0.18400
C2277       C  0.90082309  0.75522449  0.16307739     0.15600
C2278       C  0.87596796  0.75771607  0.17142730    -0.18800
C2279       C  0.90564806  0.74526402  0.13905993    -0.20700
C2280       C  0.93024775  0.74197041  0.13096603    -0.13200
C2281       C  0.95084800  0.74792772  0.14686952     0.03500
C2282       C  0.94608584  0.75898843  0.17070500    -0.25300
H2283       H  0.88736979  0.78390121  0.22949479     0.08500
H2284       H  0.93093149  0.77927599  0.21519150     0.12100
H2285       H  0.86068749  0.75162724  0.15917541     0.12100
H2286       H  0.89035903  0.73994339  0.12647466     0.11800
H2287       H  0.93301688  0.73468900  0.11197481     0.12400
H2288       H  0.96165686  0.76407774  0.18301303     0.14300
C2289       C  0.78104328  0.90761781  0.49436324    -0.05700
C2290       C  0.78398739  0.92964342  0.47965069    -0.05600
C2291       C  0.80742371  0.94202246  0.47854284    -0.23800
C2292       C  0.82819528  0.93283677  0.49249822     0.18400
C2293       C  0.82535770  0.91054924  0.50692663     0.15600
C2294       C  0.80238209  0.89779957  0.50699876    -0.18800
C2295       C  0.84541755  0.90135204  0.52155379    -0.20700
C2296       C  0.86821791  0.91419219  0.52215873    -0.13200
C2297       C  0.87178791  0.93619038  0.50765191     0.03500
C2298       C  0.85165738  0.94540609  0.49258550    -0.25300
H2299       H  0.76815270  0.93761392  0.46944755     0.08500
H2300       H  0.80914646  0.95906336  0.46723894     0.12100
H2301       H  0.80138072  0.88005952  0.51720252     0.12100
H2302       H  0.84338257  0.88431926  0.53283832     0.11800
H2303       H  0.88329586  0.90658260  0.53376938     0.12400
H2304       H  0.85410240  0.96244228  0.48139913     0.14300
C2305       C  0.59493026  0.93503027  0.48578227    -0.05700
C2306       C  0.59800415  0.91205375  0.47265116    -0.05600
C2307       C  0.62186430  0.90183878  0.46866514    -0.23800
C2308       C  0.64330495  0.91448072  0.47750385     0.18400
C2309       C  0.64070054  0.93794666  0.49015339     0.15600
C2310       C  0.61647895  0.94804083  0.49436826    -0.18800
C2311       C  0.66235575  0.95036508  0.49910057    -0.20700
C2312       C  0.68600374  0.93873464  0.49726468    -0.13200
C2313       C  0.68845803  0.91481945  0.48595198     0.03500
C2314       C  0.66715019  0.90328824  0.47518741    -0.25300
H2315       H  0.58179962  0.90170870  0.46571651     0.08500
H2316       H  0.62350962  0.88382496  0.45897217     0.12100
H2317       H  0.61440381  0.96594335  0.50418835     0.12100
H2318       H  0.66083616  0.96839499  0.50876834     0.11800
H2319       H  0.70207470  0.94752695  0.50635961     0.12400
H2320       H  0.66884302  0.88446575  0.46713584     0.14300
C2321       C  0.72542828  0.80658646  0.36077352    -0.05700
C2322       C  0.71141135  0.79363681  0.37928164    -0.05600
C2323       C  0.70995734  0.80272519  0.40411134    -0.23800
C2324       C  0.72249213  0.82498287  0.41104471     0.18400
C2325       C  0.73669502  0.83823577  0.39276097     0.15600
C2326       C  0.73810659  0.82896460  0.36772838    -0.18800
C2327       C  0.74924489  0.86049263  0.39990197    -0.20700
C2328       C  0.74785124  0.86941406  0.42491682    -0.13200
C2329       C  0.73380617  0.85632848  0.44327397     0.03500
C2330       C  0.72102291  0.83413938  0.43600747    -0.25300
H2331       H  0.70154504  0.77632005  0.37462001     0.08500
H2332       H  0.69903802  0.79228849  0.41791834     0.12100
H2333       H  0.74901082  0.83917005  0.35373108     0.12100
H2334       H  0.76029740  0.87090699  0.38619331     0.11800
H2335       H  0.75821617  0.88630973  0.42994038     0.12400
H2336       H  0.70963869  0.82404341  0.44966616     0.14300
C2337       C  0.89279310  0.50109768  0.69540866    -0.05700
C2338       C  0.88278224  0.48542806  0.67632435    -0.05600
C2339       C  0.89269916  0.48567973  0.65177957    -0.23800
C2340       C  0.91270572  0.50180380  0.64575877     0.18400
C2341       C  0.92282557  0.51778204  0.66478403     0.15600
C2342       C  0.91291968  0.51723549  0.68950409    -0.18800
C2343       C  0.94268498  0.53403681  0.65875342    -0.20700
C2344       C  0.95250468  0.53441187  0.63419371    -0.13200
C2345       C  0.94273619  0.51851649  0.61504819     0.03500
C2346       C  0.92274199  0.50220628  0.62106702    -0.25300
H2347       H  0.86753335  0.47255313  0.68051389     0.08500
H2348       H  0.88472853  0.47323012  0.63751524     0.12100
H2349       H  0.92064439  0.52954712  0.70404063     0.12100
H2350       H  0.95066351  0.54646207  0.67304001     0.11800
H2351       H  0.96789314  0.54719689  0.63025001     0.12400
H2352       H  0.91501355  0.48980721  0.60661269     0.14300
C2353       C  0.89549803  0.49539152  0.79335129    -0.05700
C2354       C  0.88070476  0.49421982  0.81547362    -0.05600
C2355       C  0.89163371  0.49303051  0.83949682    -0.23800
C2356       C  0.91774370  0.49228594  0.84211164     0.18400
C2357       C  0.93306923  0.49263292  0.82025649     0.15600
C2358       C  0.92190239  0.49448595  0.79597910    -0.18800
C2359       C  0.95927456  0.49080877  0.82315696    -0.20700
C2360       C  0.97006311  0.48871371  0.84742657    -0.13200
C2361       C  0.95485945  0.48904747  0.86915634     0.03500
C2362       C  0.92870542  0.49089815  0.86631081    -0.25300
H2363       H  0.86038442  0.49431699  0.81410406     0.08500
H2364       H  0.87960767  0.49243870  0.85604222     0.12100
H2365       H  0.93388403  0.49461817  0.77949371     0.12100
H2366       H  0.97139706  0.49087144  0.80668367     0.11800
H2367       H  0.99029495  0.48731866  0.84926210     0.12400
H2368       H  0.91682187  0.49079458  0.88299499     0.14300
C2369       C  0.83971003  0.44834930  0.73322193    -0.05700
C2370       C  0.81539394  0.44879932  0.72279278    -0.05600
C2371       C  0.80263266  0.42606756  0.71769858    -0.23800
C2372       C  0.81404767  0.40258503  0.72297810     0.18400
C2373       C  0.83888571  0.40212216  0.73252508     0.15600
C2374       C  0.85158630  0.42485440  0.73716405    -0.18800
C2375       C  0.85046014  0.37894747  0.73809305    -0.20700
C2376       C  0.83733456  0.35632882  0.73498898    -0.13200
C2377       C  0.81247508  0.35631514  0.72585711     0.03500
C2378       C  0.80102366  0.37960213  0.71945461    -0.25300
H2379       H  0.80593137  0.46666450  0.71951233     0.08500
H2380       H  0.78363086  0.42685838  0.71026145     0.12100
H2381       H  0.87064162  0.42423223  0.74452413     0.12100
H2382       H  0.86954264  0.37833074  0.74535571     0.11800
H2383       H  0.84670893  0.33875393  0.73980787     0.12400
H2384       H  0.78184948  0.37989411  0.71242299     0.14300
C2385       C  0.63103865  0.23860652  0.67318696    -0.05700
C2386       C  0.62795157  0.25527481  0.65256907    -0.05600
C2387       C  0.60407262  0.26029152  0.64263992    -0.23800
C2388       C  0.58279615  0.24884515  0.65321060     0.18400
C2389       C  0.58559937  0.23196436  0.67383679     0.15600
C2390       C  0.60967537  0.22681980  0.68357287    -0.18800
C2391       C  0.56422346  0.22075672  0.68453048    -0.20700
C2392       C  0.54029493  0.22634351  0.67493211    -0.13200
C2393       C  0.53734919  0.24304674  0.65434108     0.03500
C2394       C  0.55875850  0.25410032  0.64356174    -0.25300
H2395       H  0.64399525  0.26467195  0.64422727     0.08500
H2396       H  0.60222539  0.27331548  0.62682482     0.12100
H2397       H  0.61167959  0.21397614  0.69952110     0.12100
H2398       H  0.56600478  0.20768947  0.70031126     0.11800
H2399       H  0.52411670  0.21718595  0.68327032     0.12400
H2400       H  0.55677515  0.26704673  0.62784424     0.14300
C2401       C  0.75280791  0.35682008  0.53929287    -0.05700
C2402       C  0.76580384  0.36914408  0.55902311    -0.05600
C2403       C  0.76490347  0.35975188  0.58392740    -0.23800
C2404       C  0.75079977  0.33799715  0.58950753     0.18400
C2405       C  0.73741203  0.32582330  0.56972956     0.15600
C2406       C  0.73850234  0.33525993  0.54490478    -0.18800
C2407       C  0.72310543  0.30430693  0.57499278    -0.20700
C2408       C  0.72210523  0.29471508  0.59959463    -0.13200
C2409       C  0.73543549  0.30634302  0.61959898     0.03500
C2410       C  0.74980406  0.32813644  0.61438555    -0.25300
H2411       H  0.77705261  0.38574902  0.55510389     0.08500
H2412       H  0.77529347  0.36942651  0.59876903     0.12100
H2413       H  0.72793423  0.32592326  0.52995453     0.12100
H2414       H  0.71271301  0.29479925  0.56003262     0.11800
H2415       H  0.71090578  0.27793631  0.60285956     0.12400
H2416       H  0.76016063  0.33735454  0.62955251     0.14300
C2417       C  0.85703119  0.24945977  0.80300944    -0.05700
C2418       C  0.85612558  0.23871604  0.82747036    -0.05600
C2419       C  0.87793714  0.23554732  0.84187524    -0.23800
C2420       C  0.90122814  0.24279330  0.83206396     0.18400
C2421       C  0.90257411  0.25340452  0.80747610     0.15600
C2422       C  0.88043639  0.25683421  0.79310774    -0.18800
C2423       C  0.92600199  0.26073661  0.79791757    -0.20700
C2424       C  0.94782926  0.25748820  0.81251971    -0.13200
C2425       C  0.94683416  0.24632907  0.83683574     0.03500
C2426       C  0.92312389  0.23979363  0.84664851    -0.25300
H2427       H  0.83842289  0.23291189  0.83568354     0.08500
H2428       H  0.87657002  0.22737997  0.86070839     0.12100
H2429       H  0.88144916  0.26506846  0.77427767     0.12100
H2430       H  0.92742217  0.26930426  0.77927582     0.11800
H2431       H  0.96538581  0.26429443  0.80486987     0.12400
H2432       H  0.92150990  0.23273131  0.86588590     0.14300
C2433       C  0.75272540  0.17776733  0.84890676    -0.05700
C2434       C  0.73897342  0.15510074  0.85034730    -0.05600
C2435       C  0.73605907  0.14259360  0.87346088    -0.23800
C2436       C  0.74669832  0.15254687  0.89568752     0.18400
C2437       C  0.76052695  0.17529883  0.89465143     0.15600
C2438       C  0.76351092  0.18778037  0.87125814    -0.18800
C2439       C  0.77140255  0.18490305  0.91697109    -0.20700
C2440       C  0.76836689  0.17218228  0.94008466    -0.13200
C2441       C  0.75391001  0.14988976  0.94154035     0.03500
C2442       C  0.74384192  0.13987497  0.91885226    -0.25300
H2443       H  0.73044934  0.14691005  0.83353610     0.08500
H2444       H  0.72540410  0.12513058  0.87394791     0.12100
H2445       H  0.77416875  0.20523444  0.87049552     0.12100
H2446       H  0.78242797  0.20212707  0.91652901     0.11800
H2447       H  0.77748516  0.17975023  0.95686425     0.12400
H2448       H  0.73431702  0.12182208  0.91875512     0.14300
C2449       C  0.55768151  0.99109394  0.87572431    -0.05700
C2450       C  0.56102920  0.01597500  0.86678253    -0.05600
C2451       C  0.56791165  0.02072246  0.84182693    -0.23800
C2452       C  0.57200499  0.00069528  0.82507839     0.18400
C2453       C  0.56811861  0.97550145  0.83319160     0.15600
C2454       C  0.56059876  0.97075990  0.85856676    -0.18800
C2455       C  0.57242857  0.95574523  0.81582149    -0.20700
C2456       C  0.58193368  0.96093132  0.79143825    -0.13200
C2457       C  0.58748536  0.98591360  0.78406035     0.03500
C2458       C  0.58096276  0.00567812  0.80063731    -0.25300
H2459       H  0.55839816  0.03205547  0.87925772     0.08500
H2460       H  0.57067176  0.04014294  0.83581613     0.12100
H2461       H  0.55792602  0.95150537  0.86510486     0.12100
H2462       H  0.56919585  0.93626673  0.82133221     0.11800
H2463       H  0.58572312  0.94530579  0.77884440     0.12400
H2464       H  0.58382813  0.02516776  0.79493179     0.14300
C2465       C  0.55156105  0.00983771  0.60175275    -0.05700
C2466       C  0.54854607  0.03230752  0.61574165    -0.05600
C2467       C  0.55457418  0.03315826  0.64157513    -0.23800
C2468       C  0.56373341  0.01154822  0.65399140     0.18400
C2469       C  0.56624246  0.98863125  0.64042776     0.15600
C2470       C  0.56016766  0.98791623  0.61438780    -0.18800
C2471       C  0.57545515  0.96705290  0.65302823    -0.20700
C2472       C  0.58387206  0.96868484  0.67824934    -0.13200
C2473       C  0.58299274  0.99184789  0.69125964     0.03500
C2474       C  0.57166329  0.01285984  0.67939462    -0.25300
H2475       H  0.54159633  0.04935558  0.60667801     0.08500
H2476       H  0.55245511  0.05085413  0.65174963     0.12100
H2477       H  0.56212451  0.97031365  0.60401282     0.12100
H2478       H  0.57731102  0.94924598  0.64300784     0.11800
H2479       H  0.59276034  0.95234453  0.68689465     0.12400
H2480       H  0.57074339  0.03077681  0.68939910     0.14300
C2481       C  0.65072489  0.03836697  0.73734124    -0.05700
C2482       C  0.67720030  0.03801183  0.73822515    -0.05600
C2483       C  0.69085950  0.06061138  0.74011547    -0.23800
C2484       C  0.67841929  0.08402718  0.74089212     0.18400
C2485       C  0.65193488  0.08464908  0.73948312     0.15600
C2486       C  0.63839326  0.06198678  0.73814681    -0.18800
C2487       C  0.63933262  0.10794466  0.73949325    -0.20700
C2488       C  0.65284942  0.13050299  0.74106027    -0.13200
C2489       C  0.67915846  0.13018350  0.74322446     0.03500
C2490       C  0.69190465  0.10682595  0.74314470    -0.25300
H2491       H  0.68762371  0.02050613  0.73806210     0.08500
H2492       H  0.71118468  0.05975593  0.74108224     0.12100
H2493       H  0.61802523  0.06266616  0.73769312     0.12100
H2494       H  0.61901372  0.10872617  0.73825853     0.11800
H2495       H  0.64266643  0.14826638  0.74108652     0.12400
H2496       H  0.71223615  0.10644352  0.74448085     0.14300
C2497       C  0.83032954  0.53972540  0.74165655    -0.05700
C2498       C  0.81226136  0.54526989  0.76021312    -0.05600
C2499       C  0.80100066  0.56915376  0.76128972    -0.23800
C2500       C  0.80799650  0.58812426  0.74409936     0.18400
C2501       C  0.82513323  0.58230885  0.72446728     0.15600
C2502       C  0.83594505  0.55798228  0.72314184    -0.18800
C2503       C  0.83220767  0.60134569  0.70739127    -0.20700
C2504       C  0.82301723  0.62601562  0.71015457    -0.13200
C2505       C  0.80661347  0.63227348  0.73011372     0.03500
C2506       C  0.79888380  0.61300509  0.74681164    -0.25300
H2507       H  0.80801351  0.53152652  0.77485291     0.08500
H2508       H  0.78779636  0.57316683  0.77636696     0.12100
H2509       H  0.85028606  0.55398034  0.70913549     0.12100
H2510       H  0.84524570  0.59728509  0.69217801     0.11800
H2511       H  0.82909654  0.64033649  0.69681228     0.12400
H2512       H  0.78595040  0.61738556  0.76203956     0.14300
C2513       C  0.72049757  0.81100022  0.62887587    -0.05700
C2514       C  0.70067129  0.82832551  0.62554179    -0.05600
C2515       C  0.69696833  0.84043967  0.60234468    -0.23800
C2516       C  0.71295180  0.83541525  0.58193309     0.18400
C2517       C  0.73246297  0.81746796  0.58470218     0.15600
C2518       C  0.73617999  0.80535999  0.60820587    -0.18800
C2519       C  0.74836725  0.81260236  0.56415963    -0.20700
C2520       C  0.74575536  0.82634889  0.54160937    -0.13200
C2521       C  0.72706024  0.84511237  0.53895044     0.03500
C2522       C  0.71028041  0.84893566  0.55921320    -0.25300
H2523       H  0.68825669  0.83299547  0.64109798     0.08500
H2524       H  0.68187079  0.85411397  0.60053370     0.12100
H2525       H  0.75136250  0.79184058  0.61047330     0.12100
H2526       H  0.76338386  0.79882998  0.56582585     0.11800
H2527       H  0.75915733  0.82314701  0.52652734     0.12400
H2528       H  0.69600642  0.86338635  0.55844791     0.14300
C2529       C  0.53923619  0.74788361  0.83653395    -0.05700
C2530       C  0.54484918  0.76572624  0.81765896    -0.05600
C2531       C  0.56935575  0.76800137  0.80843493    -0.23800
C2532       C  0.58853899  0.75214770  0.81765246     0.18400
C2533       C  0.58292504  0.73378489  0.83629578     0.15600
C2534       C  0.55837152  0.73196109  0.84580688    -0.18800
C2535       C  0.60195292  0.71752719  0.84504188    -0.20700
C2536       C  0.62633938  0.71939427  0.83540028    -0.13200
C2537       C  0.63226737  0.73776682  0.81706146     0.03500
C2538       C  0.61316678  0.75419406  0.80837814    -0.25300
H2539       H  0.53036950  0.77828754  0.81047696     0.08500
H2540       H  0.57330329  0.78214598  0.79409274     0.12100
H2541       H  0.55405513  0.71798839  0.86023414     0.12100
H2542       H  0.59793798  0.70324550  0.85922836     0.11800
H2543       H  0.64058409  0.70643658  0.84233273     0.12400
H2544       H  0.61730786  0.76827941  0.79401831     0.14300
C2545       C  0.66150206  0.84951374  0.74337224    -0.05700
C2546       C  0.64586696  0.85673066  0.76356960    -0.05600
C2547       C  0.63587039  0.88115020  0.76474644    -0.23800
C2548       C  0.64154565  0.89896179  0.74590545     0.18400
C2549       C  0.65690274  0.89191495  0.72524845     0.15600
C2550       C  0.66654508  0.86715932  0.72395213    -0.18800
C2551       C  0.66293761  0.91000201  0.70669523    -0.20700
C2552       C  0.65432739  0.93494452  0.70897826    -0.13200
C2553       C  0.63922617  0.94204574  0.72957508     0.03500
C2554       C  0.63268002  0.92389684  0.74778567    -0.25300
H2555       H  0.64152155  0.84352934  0.77866122     0.08500
H2556       H  0.62407949  0.88625149  0.78067370     0.12100
H2557       H  0.67862787  0.86192910  0.70828326     0.12100
H2558       H  0.67467485  0.90498413  0.69070542     0.11800
H2559       H  0.65946325  0.94874346  0.69469689     0.12400
H2560       H  0.62164739  0.92944100  0.76401540     0.14300
C2561       C  0.75572850  0.67774548  0.85219790    -0.05700
C2562       C  0.77477893  0.65972550  0.85652706    -0.05600
C2563       C  0.78080583  0.65182834  0.88113789    -0.23800
C2564       C  0.76798560  0.66184283  0.90201638     0.18400
C2565       C  0.74914199  0.68036422  0.89804855     0.15600
C2566       C  0.74311517  0.68818613  0.87318034    -0.18800
C2567       C  0.73607600  0.69007841  0.91898580    -0.20700
C2568       C  0.74048150  0.68033559  0.94332203    -0.13200
C2569       C  0.75845313  0.66125579  0.94720690     0.03500
C2570       C  0.77276464  0.65267032  0.92663655    -0.25300
H2571       H  0.78493713  0.65147402  0.84078898     0.08500
H2572       H  0.79525787  0.63759638  0.88380093     0.12100
H2573       H  0.72861658  0.70231510  0.87018208     0.12100
H2574       H  0.72158050  0.70426798  0.91637023     0.11800
H2575       H  0.72880677  0.68658070  0.95891636     0.12400
H2576       H  0.78606206  0.63734140  0.92948815     0.14300
C2577       C  0.84313367  0.75232213  0.66904743    -0.05700
C2578       C  0.85140295  0.77723619  0.66479877    -0.05600
C2579       C  0.87665116  0.78232257  0.66022237    -0.23800
C2580       C  0.89413271  0.76255167  0.65927508     0.18400
C2581       C  0.88620657  0.73737975  0.66318838     0.15600
C2582       C  0.86074802  0.73239567  0.66835336    -0.18800
C2583       C  0.90394189  0.71776350  0.66184286    -0.20700
C2584       C  0.92893387  0.72294950  0.65530739    -0.13200
C2585       C  0.93670975  0.74783654  0.65008721     0.03500
C2586       C  0.91930415  0.76762549  0.65372864    -0.25300
H2587       H  0.83842034  0.79300578  0.66567971     0.08500
H2588       H  0.88246507  0.80174560  0.65721600     0.12100
H2589       H  0.85467972  0.71312441  0.67180042     0.12100
H2590       H  0.89836226  0.69832438  0.66515386     0.11800
H2591       H  0.94175151  0.70733795  0.65370878     0.12400
H2592       H  0.92498957  0.78715671  0.65146677     0.14300
loop_ 
_geom_bond_atom_site_label_1 
_geom_bond_atom_site_label_2 
_geom_bond_distance 
_geom_bond_site_symmetry_2 
_ccdc_geom_bond_type 
O1           Mg3   2.129       .  S
O1           Mg9   2.139       .  S
O1           C36   1.237       .  S
C2           O15   1.238       .  S
C2           O39   1.272       .  A
C2           H41   1.081       .  S
Mg3          O32   2.138       .  S
Mg3          O47   2.326       .  S
Mg3          O43   2.258       .  S
Mg3          O14   2.300       .  S
O4          Mg46   2.144       .  S
O4          Mg29   2.148       .  S
O4           C25   1.239       .  S
O5           C36   1.270       .  A
O5          Mg29   2.295       .  S
C6            O8   1.272       .  A
C6           O20   1.279       .  A
C6         C2505   1.489       .  S
O7           C35   1.270       .  A
O7           Mg9   2.293       .  S
O8          Mg40   2.262       .  S
Mg9          O15   2.128       .  S
Mg9          O23   2.232       .  S
Mg9          O11   2.303       .  S
C10          O48   1.272       .  A
C10          O16   1.279       .  A
C10        C2561   1.485       .  S
O11          C18   1.274       .  A
H12          C25   1.081       .  S
C13          O27   1.240       .  S
C13          O28   1.275       .  A
C13          H38   1.081       .  S
O14          C37   1.272       .  A
O15         Mg29   2.142       .  S
O16         Mg46   2.341       .  S
C17          O30   1.276       .  A
C17          O22   1.275       .  A
C17        C2537   1.486       .  S
C18          O45   1.274       .  A
C18        C2545   1.485       .  S
Mg19         O26   2.125       .  S
Mg19         O27   2.131       .  S
Mg19         O20   2.342       .  S
Mg19         O21   2.315       .  S
Mg19         O48   2.250       .  S
O21          C25   1.274       .  A
O22         Mg29   2.298       .  S
O23          C42   1.270       .  A
O24          C44   1.276       .  A
O24         Mg40   2.315       .  S
O26         Mg40   2.129       .  S
O26          C37   1.238       .  S
O27         Mg46   2.154       .  S
O28         Mg40   2.314       .  S
Mg29         O45   2.276       .  S
O30         Mg46   2.289       .  S
H31          C36   1.081       .  S
O32         Mg40   2.127       .  S
O32          C35   1.237       .  S
H33          C35   1.081       .  S
H34          C37   1.081       .  S
O39         Mg46   2.303       .  S
C42          O47   1.278       .  A
C42        C2513   1.478       .  S
O43          C44   1.274       .  A
C44        C2577   1.482       .  S
C49          C50   1.527       .  S
C49          C55   1.527       .  S
C49          C53   1.544   1_545  S
C49        C2481   1.528       .  S
C50          H57   1.086       .  S
C50          C51   1.369   1_545  D
C51          C52   1.550       .  S
C51        C2457   1.500       .  S
C52          C56   1.549       .  S
C52          C54   1.542       .  S
C52          H58   1.110       .  S
C53          H59   1.083       .  S
C53          C54   1.369       .  D
C54        C2553   1.480       .  S
C55          H60   1.087       .  S
C55          C56   1.364   1_545  D
C56        C2473   1.485       .  S
O61         Mg63   2.143       .  S
O61         Mg69   2.160       .  S
O61          C96   1.237       .  S
C62          O75   1.238       .  S
C62          O99   1.272       .  A
C62         H101   1.081       .  S
Mg63         O92   2.156       .  S
Mg63        O107   2.278       .  S
Mg63        O103   2.272       .  S
Mg63         O74   2.286       .  S
O64        Mg106   2.142       .  S
O64         Mg89   2.146       .  S
O64          C85   1.238       .  S
O65          C96   1.271       .  A
O65         Mg89   2.299       .  S
C66          O68   1.274       .  A
C66          O80   1.276       .  A
C66        C2489   1.478       .  S
O67          C95   1.271       .  A
O67         Mg69   2.296       .  S
O68        Mg100   2.275       .  S
Mg69         O75   2.145       .  S
Mg69         O83   2.295       .  S
Mg69         O71   2.317       .  S
C70         O108   1.272       .  A
C70          O76   1.277       .  A
C70        C2385   1.483       .  S
O71          C78   1.279       .  A
H72          C85   1.081       .  S
C73          O87   1.237       .  S
C73          O88   1.270       .  A
C73          H98   1.081       .  S
O74          C97   1.269       .  A
O75         Mg89   2.159       .  S
O76        Mg106   2.313       .  S
C77          O90   1.272       .  A
C77          O82   1.278       .  A
C77        C2409   1.486       .  S
C78         O105   1.274       .  A
C78        C2377   1.485       .  S
Mg79         O86   2.117       .  S
Mg79         O87   2.147       .  S
Mg79         O80   2.300       .  S
Mg79         O81   2.302       .  S
Mg79        O108   2.254       .  S
O81          C85   1.272       .  A
O82         Mg89   2.336       .  S
O83         C102   1.276       .  A
O84         C104   1.276       .  A
O84        Mg100   2.300       .  S
O86        Mg100   2.153       .  S
O86          C97   1.236       .  S
O87        Mg106   2.131       .  S
O88        Mg100   2.292       .  S
Mg89        O105   2.276       .  S
O90        Mg106   2.244       .  S
H91          C96   1.081       .  S
O92        Mg100   2.134       .  S
O92          C95   1.237       .  S
H93          C95   1.081       .  S
H94          C97   1.081       .  S
O99        Mg106   2.302       .  S
C102        O107   1.274       .  A
C102       C2417   1.484       .  S
O103        C104   1.274       .  A
C104       C2433   1.483       .  S
C109        C110   1.528       .  S
C109        C115   1.528       .  S
C109        C113   1.548       .  S
C109       C2353   1.526       .  S
C110        H117   1.087       .  S
C110        C111   1.364       .  D
C111        C112   1.546       .  S
C111       C2369   1.489       .  S
C112        C116   1.546       .  S
C112        C114   1.543       .  S
C112        H118   1.110       .  S
C113        H119   1.083       .  S
C113        C114   1.374       .  D
C114       C2337   1.486       .  S
C115        H120   1.087       .  S
C115        C116   1.360       .  D
C116       C2497   1.481       .  S
C121        C122   1.530       .  S
C121        C127   1.522       .  S
C121        C125   1.537       .  S
C121       C2521   1.526       .  S
C122        H129   1.082       .  S
C122        C123   1.360       .  D
C123        C124   1.551       .  S
C123       C2313   1.480       .  S
C124        C128   1.555       .  S
C124        C126   1.549       .  S
C124        H130   1.108       .  S
C125        H131   1.085       .  S
C125        C126   1.373       .  D
C126       C2329   1.493       .  S
C127        H132   1.085       .  S
C127        C128   1.367       .  D
C128       C2289   1.503       .  S
O133       Mg135   2.118       .  S
O133       Mg141   2.150       .  S
O133        C168   1.236       .  S
C134        O147   1.236       .  S
C134        O171   1.270       .  A
C134        H173   1.081       .  S
Mg135       O164   2.138       .  S
Mg135       O179   2.300       .  S
Mg135       O175   2.251       .  S
Mg135       O146   2.303       .  S
O136       Mg178   2.167       .  S
O136       Mg161   2.145       .  S
O136        C157   1.238       .  S
O137        C168   1.268       .  A
O137       Mg161   2.285       .  S
C138        O140   1.269       .  A
C138        O152   1.278       .  A
C138       C2225   1.472       .  S
O139        C167   1.269       .  A
O139       Mg141   2.289       .  S
O140       Mg172   2.232       .  S
Mg141       O147   2.136       .  S
Mg141       O155   2.276       .  S
Mg141       O143   2.259       .  S
C142        O180   1.273       .  A
C142        O148   1.279       .  A
C142       C2273   1.486       .  S
O143        C150   1.272       .  A
H144        C157   1.081       .  S
C145        O159   1.238       .  S
C145        O160   1.273       .  A
C145        H170   1.081       .  S
O146        C169   1.272       .  A
O147       Mg161   2.168       .  S
O148       Mg178   2.320       .  S
C149        O162   1.276       .  A
C149        O154   1.275       .  A
C149       C2209   1.484       .  S
C150        O177   1.275       .  A
C150       C2265   1.478       .  S
Mg151       O158   2.147       .  S
Mg151       O159   2.149       .  S
Mg151       O152   2.336       .  S
Mg151       O153   2.303       .  S
Mg151       O180   2.271       .  S
O153        C157   1.272       .  A
O154       Mg161   2.281       .  S
O155        C174   1.273       .  A
O156        C176   1.277       .  A
O156       Mg172   2.324       .  S
O158       Mg172   2.135       .  S
O158        C169   1.238       .  S
O159       Mg178   2.153       .  S
O160       Mg172   2.312       .  S
Mg161       O177   2.294       .  S
O162       Mg178   2.307       .  S
H163        C168   1.081       .  S
O164       Mg172   2.118       .  S
O164        C167   1.236       .  S
H165        C167   1.081       .  S
H166        C169   1.081       .  S
O171       Mg178   2.294       .  S
C174        O179   1.276       .  A
C174       C2241   1.479       .  S
O175        C176   1.272       .  A
C176       C2321   1.486       .  S
C181        C182   1.528       .  S
C181        C187   1.529   1_556  S
C181        C185   1.548       .  S
C181       C2193   1.525       .  S
C182        H189   1.087       .  S
C182        C183   1.358       .  D
C183        C184   1.544       .  S
C183       C2569   1.474       .  S
C184        C188   1.543   1_556  S
C184        C186   1.541       .  S
C184        H190   1.111       .  S
C185        H191   1.083       .  S
C185        C186   1.375       .  D
C186       C2185   1.483       .  S
C187        H192   1.087       .  S
C187        C188   1.365       .  D
C188       C2217   1.487       .  S
C193        C194   1.533       .  S
C193        C199   1.539       .  S
C193        C197   1.540       .  S
C193       C2249   1.535       .  S
C194        H201   1.086       .  S
C194        C195   1.368       .  D
C195        C196   1.546       .  S
C195       C2145   1.490       .  S
C196        C200   1.533       .  S
C196        C198   1.548       .  S
C196        H202   1.108       .  S
C197        H203   1.085       .  S
C197        C198   1.375       .  D
C198       C2129   1.501       .  S
C199        H204   1.081       .  S
C199        C200   1.358       .  D
C200       C2161   1.472       .  S
C205        C206   1.538       .  S
C205        C211   1.535       .  S
C205        C209   1.543   1_565  S
C205       C2065   1.541       .  S
C206        H213   1.085       .  S
C206        C207   1.365   1_565  D
C207        C208   1.536       .  S
C207       C2105   1.480       .  S
C208        C212   1.542       .  S
C208        C210   1.546       .  S
C208        H214   1.109       .  S
C209        H215   1.085   1_545  S
C209        C210   1.376       .  D
C210       C2081   1.496       .  S
C211        H216   1.081       .  S
C211        C212   1.366   1_565  D
C212       C2113   1.492       .  S
C217        C218   1.533       .  S
C217        C223   1.525       .  S
C217        C221   1.538       .  S
C217       C2441   1.527       .  S
C218        H225   1.084       .  S
C218        C219   1.366       .  D
C219        C220   1.549   1_556  S
C219       C2033   1.490       .  S
C220        C224   1.545   1_554  S
C220        C222   1.542       .  S
C220        H226   1.110       .  S
C221        H227   1.086       .  S
C221        C222   1.369   1_556  D
C222       C2025   1.479       .  S
C223        H228   1.087       .  S
C223        C224   1.367       .  D
C224       C2049   1.488   1_556  S
C229        C230   1.535       .  S
C229        C235   1.538       .  S
C229        C233   1.532       .  S
C229       C1953   1.532       .  S
C230        H237   1.085       .  S
C230        C231   1.366       .  D
C231        C232   1.546       .  S
C231       C2001   1.492       .  S
C232        C236   1.544       .  S
C232        C234   1.548       .  S
C232        H238   1.110       .  S
C233        H239   1.086       .  S
C233        C234   1.370       .  D
C234       C1977   1.486       .  S
C235        H240   1.084       .  S
C235        C236   1.362       .  D
C236       C1985   1.478       .  S
C241        C242   1.525       .  S
C241        C247   1.525       .  S
C241        C245   1.545       .  S
C241       C1913   1.525       .  S
C242        H249   1.087       .  S
C242        C243   1.366       .  D
C243        C244   1.547       .  S
C243       C1937   1.489       .  S
C244        C248   1.549       .  S
C244        C246   1.538       .  S
C244        H250   1.110       .  S
C245        H251   1.081       .  S
C245        C246   1.371       .  D
C246       C2401   1.485       .  S
C247        H252   1.086       .  S
C247        C248   1.366       .  D
C248       C1921   1.487       .  S
C253        C254   1.542       .  S
C253        C259   1.532       .  S
C253        C257   1.537       .  S
C253       C1873   1.526       .  S
C254        H261   1.082       .  S
C254        C255   1.368       .  D
C255        C256   1.535       .  S
C255       C2257   1.475       .  S
C256        C260   1.533       .  S
C256        C258   1.540       .  S
C256        H262   1.110       .  S
C257        H263   1.086       .  S
C257        C258   1.369       .  D
C258       C1857   1.484       .  S
C259        H264   1.087       .  S
C259        C260   1.360       .  D
C260       C1897   1.467       .  S
C265        C266   1.528       .  S
C265        C271   1.537       .  S
C265        C269   1.543       .  S
C265       C1817   1.527       .  S
C266        H273   1.087       .  S
C266        C267   1.362       .  D
C267        C268   1.538       .  S
C267       C1793   1.478       .  S
C268        C272   1.545       .  S
C268        C270   1.539       .  S
C268        H274   1.110       .  S
C269        H275   1.083       .  S
C269        C270   1.368       .  D
C270       C1825   1.479       .  S
C271        H276   1.086       .  S
C271        C272   1.369       .  D
C272       C1841   1.492       .  S
C277        C278   1.526   1_455  S
C277        C283   1.530       .  S
C277        C281   1.546       .  S
C277       C1761   1.528       .  S
C278        H285   1.087       .  S
C278        C279   1.364       .  D
C279        C280   1.549       .  S
C279       C2281   1.497       .  S
C280        C284   1.554   1_655  S
C280        C282   1.539   1_655  S
C280        H286   1.110       .  S
C281        H287   1.082       .  S
C281        C282   1.371       .  D
C282       C1785   1.483       .  S
C283        H288   1.087       .  S
C283        C284   1.365       .  D
C284       C1753   1.489       .  S
O289       Mg291   2.136       .  S
O289       Mg297   2.156       .  S
O289        C324   1.237       .  S
C290        O303   1.238       .  S
C290        O327   1.273       .  A
C290        H329   1.081       .  S
Mg291       O320   2.139       .  S
Mg291       O335   2.285       .  S
Mg291       O331   2.260       .  S
Mg291       O302   2.294       .  S
O292       Mg334   2.135       .  S
O292       Mg317   2.140       .  S
O292        C313   1.239       .  S
O293        C324   1.271       .  A
O293       Mg317   2.300       .  S
C294        O296   1.274       .  A
C294        O308   1.277       .  A
C294       C1713   1.486       .  S
O295        C323   1.272       .  A
O295       Mg297   2.298       .  S
O296       Mg328   2.269       .  S
Mg297       O303   2.164       .  S
Mg297       O311   2.305       .  S
Mg297       O299   2.310       .  S
C298        O336   1.272       .  A
C298        O304   1.279       .  A
C298       C1697   1.488       .  S
O299        C306   1.277       .  A
H300        C313   1.081       .  S
C301        O315   1.240       .  S
C301        O316   1.275       .  A
C301        H326   1.081       .  S
O302        C325   1.270       .  A
O303       Mg317   2.157       .  S
O304       Mg334   2.353       .  S
C305        O318   1.276       .  A
C305        O310   1.281       .  A
C305       C1745   1.499       .  S
C306        O333   1.274       .  A
C306       C1729   1.480       .  S
Mg307       O314   2.136       .  S
Mg307       O315   2.133       .  S
Mg307       O308   2.314       .  S
Mg307       O309   2.308       .  S
Mg307       O336   2.258       .  S
O309        C313   1.274       .  A
O310       Mg317   2.352       .  S
O311        C330   1.276       .  A
O312        C332   1.281       .  A
O312       Mg328   2.361       .  S
O314       Mg328   2.140       .  S
O314        C325   1.236       .  S
O315       Mg334   2.156       .  S
O316       Mg328   2.314       .  S
Mg317       O333   2.261       .  S
O318       Mg334   2.284       .  S
H319        C324   1.081       .  S
O320       Mg328   2.134       .  S
O320        C323   1.239       .  S
H321        C323   1.081       .  S
H322        C325   1.081       .  S
O327       Mg334   2.310       .  S
C330        O335   1.274       .  A
C330       C1849   1.489       .  S
O331        C332   1.273       .  A
C332       C2137   1.488       .  S
C337        C338   1.535       .  S
C337        C343   1.534       .  S
C337        C341   1.543   1_556  S
C337       C1649   1.536       .  S
C338        H345   1.083       .  S
C338        C339   1.366   1_556  D
C339        C340   1.551       .  S
C339       C1665   1.497       .  S
C340        C344   1.544       .  S
C340        C342   1.546       .  S
C340        H346   1.109       .  S
C341        H347   1.085       .  S
C341        C342   1.375       .  D
C342       C1705   1.497       .  S
C343        H348   1.086       .  S
C343        C344   1.361   1_556  D
C344       C1681   1.485       .  S
C349        C350   1.534       .  S
C349        C355   1.526       .  S
C349        C353   1.545       .  S
C349       C1633   1.529       .  S
C350        H357   1.086       .  S
C350        C351   1.365       .  D
C351        C352   1.542       .  S
C351       C1617   1.483       .  S
C352        C356   1.545       .  S
C352        C354   1.541       .  S
C352        H358   1.110       .  S
C353        H359   1.083       .  S
C353        C354   1.372       .  D
C354       C2393   1.485       .  S
C355        H360   1.086       .  S
C355        C356   1.367       .  D
C356       C1601   1.491       .  S
O361       Mg363   2.148       .  S
O361       Mg369   2.141       .  S
O361        C396   1.238       .  S
C362        O375   1.236       .  S
C362        O399   1.271       .  A
C362        H401   1.081       .  S
Mg363       O392   2.146       .  S
Mg363       O407   2.342       .  S
Mg363       O403   2.262       .  S
Mg363       O374   2.303       .  S
O364       Mg406   2.136       .  S
O364       Mg389   2.147       .  S
O364        C385   1.238       .  S
O365        C396   1.272       .  A
O365       Mg389   2.304       .  S
C366        O368   1.272       .  A
C366        O380   1.277       .  A
C366       C2089   1.483       .  S
O367        C395   1.270       .  A
O367       Mg369   2.293       .  S
O368       Mg400   2.255       .  S
Mg369       O375   2.129       .  S
Mg369       O383   2.224       .  S
Mg369       O371   2.294       .  S
C370        O408   1.271       .  A
C370        O376   1.274       .  A
C370       C1585   1.470       .  S
O371        C378   1.273       .  A
H372        C385   1.081       .  S
C373        O387   1.239       .  S
C373        O388   1.274       .  A
C373        H398   1.081       .  S
O374        C397   1.271       .  A
O375       Mg389   2.142       .  S
O376       Mg406   2.318       .  S
C377        O390   1.272       .  A
C377        O382   1.276       .  A
C377       C1641   1.475       .  S
C378        O405   1.274       .  A
C378       C1969   1.484       .  S
Mg379       O386   2.139       .  S
Mg379       O387   2.134       .  S
Mg379       O380   2.337       .  S
Mg379       O381   2.312       .  S
Mg379       O408   2.248       .  S
O381        C385   1.273       .  A
O382       Mg389   2.326       .  S
O383        C402   1.269       .  A
O384        C404   1.278       .  A
O384       Mg400   2.320       .  S
O386       Mg400   2.133       .  S
O386        C397   1.236       .  S
O387       Mg406   2.155       .  S
O388       Mg400   2.311       .  S
Mg389       O405   2.282       .  S
O390       Mg406   2.263       .  S
H391        C396   1.081       .  S
O392       Mg400   2.133       .  S
O392        C395   1.237       .  S
H393        C395   1.081       .  S
H394        C397   1.081       .  S
O399       Mg406   2.301       .  S
C402        O407   1.277       .  A
C402       C1569   1.478       .  S
O403        C404   1.274       .  A
C404       C1553   1.484       .  S
C409        C410   1.527       .  S
C409        C415   1.533       .  S
C409        C413   1.544       .  S
C409       C2425   1.527       .  S
C410        H417   1.086       .  S
C410        C411   1.368       .  D
C411        C412   1.545   1_655  S
C411       C1529   1.494   1_655  S
C412        C416   1.546   1_455  S
C412        C414   1.538       .  S
C412        H418   1.110       .  S
C413        H419   1.085       .  S
C413        C414   1.368   1_655  D
C414       C1561   1.479       .  S
C415        H420   1.086       .  S
C415        C416   1.366       .  D
C416       C1537   1.486       .  S
O421       Mg423   2.119       .  S
O421       Mg429   2.144       .  S
O421        C456   1.235       .  S
C422        O435   1.237       .  S
C422        O459   1.269       .  A
C422        H461   1.081       .  S
Mg423       O452   2.149       .  S
Mg423       O467   2.292       .  S
Mg423       O463   2.232       .  S
Mg423       O434   2.294       .  S
O424       Mg466   2.161       .  S
O424       Mg449   2.150       .  S
O424        C445   1.238       .  S
O425        C456   1.267       .  A
O425       Mg449   2.286       .  S
C426        O428   1.275       .  A
C426        O440   1.279       .  A
C426       C1505   1.492       .  S
O427        C455   1.272       .  A
O427       Mg429   2.299       .  S
O428       Mg460   2.288       .  S
Mg429       O435   2.120       .  S
Mg429       O443   2.255       .  S
Mg429       O431   2.312       .  S
C430        O468   1.273       .  A
C430        O436   1.273       .  A
C430       C2017   1.481       .  S
O431        C438   1.278       .  A
H432        C445   1.081       .  S
C433        O447   1.238       .  S
C433        O448   1.272       .  A
C433        H458   1.081       .  S
O434        C457   1.271       .  A
O435       Mg449   2.154       .  S
O436       Mg466   2.291       .  S
C437        O450   1.271       .  A
C437        O442   1.276       .  A
C437       C1481   1.476       .  S
C438        O465   1.278       .  A
C438       C1489   1.492       .  S
Mg439       O446   2.120       .  S
Mg439       O447   2.146       .  S
Mg439       O440   2.321       .  S
Mg439       O441   2.307       .  S
Mg439       O468   2.264       .  S
O441        C445   1.273       .  A
O442       Mg449   2.292       .  S
O443        C462   1.272       .  A
O444        C464   1.277       .  A
O444       Mg460   2.317       .  S
O446       Mg460   2.143       .  S
O446        C457   1.237       .  S
O447       Mg466   2.147       .  S
O448       Mg460   2.306       .  S
Mg449       O465   2.299       .  S
O450       Mg466   2.257       .  S
H451        C456   1.081       .  S
O452       Mg460   2.145       .  S
O452        C455   1.239       .  S
H453        C455   1.081       .  S
H454        C457   1.081       .  S
O459       Mg466   2.289       .  S
C462        O467   1.274       .  A
C462       C1905   1.474       .  S
O463        C464   1.270       .  A
C464       C1889   1.479       .  S
C469        C470   1.523   1_545  S
C469        C475   1.527       .  S
C469        C473   1.548       .  S
C469       C1465   1.518       .  S
C470        H477   1.087       .  S
C470        C471   1.361       .  D
C471        C472   1.544       .  S
C471       C2233   1.483       .  S
C472        C476   1.536   1_565  S
C472        C474   1.541   1_565  S
C472        H478   1.110       .  S
C473        H479   1.083       .  S
C473        C474   1.376       .  D
C474       C1441   1.479       .  S
C475        H480   1.087       .  S
C475        C476   1.360       .  D
C476       C1473   1.478       .  S
C481        C482   1.530       .  S
C481        C487   1.525       .  S
C481        C485   1.540       .  S
C481       C1425   1.526       .  S
C482        H489   1.085       .  S
C482        C483   1.358       .  D
C483        C484   1.541   1_455  S
C483       C1409   1.472   1_455  S
C484        C488   1.545       .  S
C484        C486   1.549       .  S
C484        H490   1.110       .  S
C485        H491   1.085       .  S
C485        C486   1.374   1_455  D
C486       C1497   1.490       .  S
C487        H492   1.086       .  S
C487        C488   1.367   1_455  D
C488       C1393   1.487       .  S
O493       Mg495   2.147       .  S
O493       Mg501   2.141       .  S
O493        C528   1.238       .  S
C494        O507   1.237       .  S
C494        O531   1.271       .  A
C494        H533   1.081       .  S
Mg495       O524   2.166       .  S
Mg495       O539   2.354       .  S
Mg495       O535   2.287       .  S
Mg495       O506   2.294       .  S
O496       Mg538   2.143       .  S
O496       Mg521   2.148       .  S
O496        C517   1.238       .  S
O497        C528   1.272       .  A
O497       Mg521   2.304       .  S
C498        O500   1.274       .  A
C498        O512   1.275       .  A
C498       C1313   1.489       .  S
O499        C527   1.272       .  A
O499       Mg501   2.296       .  S
O500       Mg532   2.292       .  S
Mg501       O507   2.137       .  S
Mg501       O515   2.262       .  S
Mg501       O503   2.310       .  S
C502        O540   1.270       .  A
C502        O508   1.276       .  A
C502       C1433   1.481       .  S
O503        C510   1.278       .  A
H504        C517   1.081       .  S
C505        O519   1.238       .  S
C505        O520   1.271       .  A
C505        H530   1.081       .  S
O506        C529   1.270       .  A
O507       Mg521   2.152       .  S
O508       Mg538   2.301       .  S
C509        O522   1.271       .  A
C509        O514   1.282       .  A
C509       C1329   1.488       .  S
C510        O537   1.277       .  A
C510       C1369   1.489       .  S
Mg511       O518   2.119       .  S
Mg511       O519   2.149       .  S
Mg511       O512   2.297       .  S
Mg511       O513   2.302       .  S
Mg511       O540   2.254       .  S
O513        C517   1.272       .  A
O514       Mg521   2.356       .  S
O515        C534   1.274       .  A
O516        C536   1.273       .  A
O516       Mg532   2.270       .  S
O518       Mg532   2.149       .  S
O518        C529   1.237       .  S
O519       Mg538   2.127       .  S
O520       Mg532   2.294       .  S
Mg521       O537   2.293       .  S
O522       Mg538   2.235       .  S
H523        C528   1.081       .  S
O524       Mg532   2.144       .  S
O524        C527   1.238       .  S
H525        C527   1.081       .  S
H526        C529   1.081       .  S
O531       Mg538   2.297       .  S
C534        O539   1.281       .  A
C534       C1345   1.494       .  S
O535        C536   1.276       .  A
C536       C1385   1.474       .  S
C541        C542   1.523   1_554  S
C541        C547   1.524       .  S
C541        C545   1.545       .  S
C541       C1297   1.521       .  S
C542        H549   1.085       .  S
C542        C543   1.366       .  D
C543        C544   1.547   1_556  S
C543       C1577   1.494       .  S
C544        C548   1.541       .  S
C544        C546   1.545       .  S
C544        H550   1.109       .  S
C545        H551   1.083       .  S
C545        C546   1.376       .  D
C546       C1281   1.489       .  S
C547        H552   1.087       .  S
C547        C548   1.358       .  D
C548       C1377   1.469       .  S
C553        C554   1.546       .  S
C553        C559   1.531   1_545  S
C553        C557   1.546       .  S
C553       C1249   1.534       .  S
C554        H561   1.080       .  S
C554        C555   1.369       .  D
C555        C556   1.542       .  S
C555       C1361   1.493       .  S
C556        C560   1.539   1_545  S
C556        C558   1.533       .  S
C556        H562   1.110       .  S
C557        H563   1.086       .  S
C557        C558   1.371       .  D
C558       C1265   1.478       .  S
C559        H564   1.087       .  S
C559        C560   1.358       .  D
C560       C1721   1.478       .  S
O565       Mg567   2.144       .  S
O565       Mg573   2.142   1_655  S
O565        C600   1.240   1_565  S
C566        O579   1.236   1_565  S
C566        O603   1.270   1_565  A
C566        H605   1.081       .  S
Mg567       O596   2.133       .  S
Mg567       O611   2.325       .  S
Mg567       O607   2.268       .  S
Mg567       O578   2.303   1_565  S
O568       Mg610   2.151       .  S
O568       Mg593   2.124       .  S
O568        C589   1.238   1_455  S
O569        C600   1.274       .  A
O569       Mg593   2.308   1_655  S
C570        O572   1.268   1_545  A
C570        O584   1.271       .  A
C570       C1457   1.460       .  S
O571        C599   1.271   1_455  A
O571       Mg573   2.297       .  S
O572       Mg604   2.237       .  S
Mg573       O579   2.131   1_565  S
Mg573       O587   2.253       .  S
Mg573       O575   2.269       .  S
C574        O612   1.269       .  A
C574        O580   1.280   1_655  A
C574       C1417   1.480       .  S
O575        C582   1.272   1_565  A
H576        C589   1.081       .  S
C577        O591   1.239       .  S
C577        O592   1.273   1_545  A
C577        H602   1.081   1_655  S
O578        C601   1.271       .  A
O579       Mg593   2.149       .  S
O580       Mg610   2.339       .  S
C581        O594   1.278       .  A
C581        O586   1.282       .  A
C581       C1241   1.493       .  S
C582        O609   1.275       .  A
C582       C2097   1.483       .  S
Mg583       O590   2.139       .  S
Mg583       O591   2.136       .  S
Mg583       O584   2.300       .  S
Mg583       O585   2.295       .  S
Mg583       O612   2.228       .  S
O585        C589   1.271       .  A
O586       Mg593   2.330       .  S
O587        C606   1.270   1_455  A
O588        C608   1.276       .  A
O588       Mg604   2.330       .  S
O590       Mg604   2.131   1_545  S
O590        C601   1.236       .  S
O591       Mg610   2.149   1_655  S
O592       Mg604   2.311       .  S
Mg593       O609   2.290       .  S
O594       Mg610   2.297       .  S
H595        C600   1.081       .  S
O596       Mg604   2.121       .  S
O596        C599   1.238       .  S
H597        C599   1.081       .  S
H598        C601   1.081       .  S
O603       Mg610   2.295       .  S
C606        O611   1.276       .  A
C606       C1217   1.468       .  S
O607        C608   1.275       .  A
C608       C2297   1.486       .  S
O613       Mg615   2.124       .  S
O613       Mg621   2.139   1_556  S
O613        C648   1.239       .  S
C614        O627   1.236       .  S
C614        O651   1.270   1_465  A
C614        H653   1.081       .  S
Mg615       O644   2.137   1_565  S
Mg615       O659   2.315       .  S
Mg615       O655   2.239       .  S
Mg615       O626   2.300       .  S
O616       Mg658   2.146   1_565  S
O616       Mg641   2.141       .  S
O616        C637   1.237       .  S
O617        C648   1.272   1_654  A
O617       Mg641   2.300       .  S
C618        O620   1.273   1_655  A
C618        O632   1.274       .  A
C618       C1545   1.482       .  S
O619        C647   1.272   1_565  A
O619       Mg621   2.301       .  S
O620       Mg652   2.270       .  S
Mg621       O627   2.132       .  S
Mg621       O635   2.277       .  S
Mg621       O623   2.304       .  S
C622        O660   1.270   1_554  A
C622        O628   1.278       .  A
C622       C2057   1.476       .  S
O623        C630   1.276       .  A
H624        C637   1.081       .  S
C625        O639   1.238       .  S
C625        O640   1.272   1_655  A
C625        H650   1.081       .  S
O626        C649   1.271   1_455  A
O627       Mg641   2.140   1_455  S
O628       Mg658   2.347       .  S
C629        O642   1.275   1_565  A
C629        O634   1.277       .  A
C629       C1449   1.481       .  S
C630        O657   1.273   1_455  A
C630       C1777   1.483       .  S
Mg631       O638   2.131       .  S
Mg631       O639   2.138   1_556  S
Mg631       O632   2.293       .  S
Mg631       O633   2.299   1_545  S
Mg631       O660   2.234       .  S
O633        C637   1.271   1_556  A
O634       Mg641   2.309       .  S
O635        C654   1.273       .  A
O636        C656   1.277       .  A
O636       Mg652   2.327       .  S
O638       Mg652   2.154   1_655  S
O638        C649   1.238   1_545  S
O639       Mg658   2.148       .  S
O640       Mg652   2.305   1_554  S
Mg641       O657   2.271       .  S
O642       Mg658   2.267       .  S
H643        C648   1.081       .  S
O644       Mg652   2.136       .  S
O644        C647   1.238   1_556  S
H645        C647   1.081       .  S
H646        C649   1.081       .  S
O651       Mg658   2.298       .  S
C654        O659   1.277   1_554  A
C654       C1689   1.489       .  S
O655        C656   1.272   1_565  A
C656       C2121   1.475       .  S
O661       Mg663   2.140       .  S
O661       Mg669   2.143       .  S
O661        C696   1.240       .  S
C662        O675   1.238       .  S
C662        O699   1.272   1_545  A
C662        H701   1.081       .  S
Mg663       O692   2.143   1_545  S
Mg663       O707   2.357       .  S
Mg663       O703   2.287       .  S
Mg663       O674   2.309       .  S
O664       Mg706   2.146   1_545  S
O664       Mg689   2.143       .  S
O664        C685   1.238       .  S
O665        C696   1.274       .  A
O665       Mg689   2.303       .  S
C666        O668   1.268       .  A
C666        O680   1.277       .  A
C666       C2169   1.480       .  S
O667        C695   1.268   1_545  A
O667       Mg669   2.285       .  S
O668       Mg700   2.239       .  S
Mg669       O675   2.134       .  S
Mg669       O683   2.252       .  S
Mg669       O671   2.294       .  S
C670        O708   1.273       .  A
C670        O676   1.282       .  A
C670       C2305   1.488       .  S
O671        C678   1.275       .  A
H672        C685   1.081       .  S
C673        O687   1.240       .  S
C673        O688   1.274       .  A
C673        H698   1.081       .  S
O674        C697   1.274   1_545  A
O675       Mg689   2.141       .  S
O676       Mg706   2.363       .  S
C677        O690   1.275   1_545  A
C677        O682   1.277       .  A
C677       C2465   1.485       .  S
C678        O705   1.274       .  A
C678       C1625   1.487       .  S
Mg679       O686   2.140       .  S
Mg679       O687   2.129       .  S
Mg679       O680   2.325       .  S
Mg679       O681   2.305       .  S
Mg679       O708   2.256       .  S
O681        C685   1.272   1_565  A
O682       Mg689   2.309       .  S
O683        C702   1.274       .  A
O684        C704   1.273       .  A
O684       Mg700   2.286       .  S
O686       Mg700   2.135       .  S
O686        C697   1.239       .  S
O687       Mg706   2.138       .  S
O688       Mg700   2.307       .  S
Mg689       O705   2.286       .  S
O690       Mg706   2.274       .  S
H691        C696   1.081       .  S
O692       Mg700   2.115       .  S
O692        C695   1.236       .  S
H693        C695   1.081       .  S
H694        C697   1.081       .  S
O699       Mg706   2.305       .  S
C702        O707   1.281       .  A
C702       C1209   1.491       .  S
O703        C704   1.276   1_545  A
C704       C1273   1.485       .  S
C709        C710   1.527       .  S
C709        C715   1.524       .  S
C709        C713   1.541       .  S
C709       C1593   1.525       .  S
C710        H717   1.084       .  S
C710        C711   1.368       .  D
C711        C712   1.555       .  S
C711       C1201   1.507       .  S
C712        C716   1.555       .  S
C712        C714   1.548       .  S
C712        H718   1.109       .  S
C713        H719   1.084       .  S
C713        C714   1.374       .  D
C714       C1337   1.481       .  S
C715        H720   1.087       .  S
C715        C716   1.361       .  D
C716       C1233   1.496       .  S
O721       Mg723   2.153       .  S
O721       Mg729   2.128   1_565  S
O721        C756   1.239       .  S
C722        O735   1.238       .  S
C722        O759   1.270       .  A
C722        H761   1.081       .  S
Mg723       O752   2.155       .  S
Mg723       O767   2.372       .  S
Mg723       O763   2.281       .  S
Mg723       O734   2.316       .  S
O724       Mg766   2.146       .  S
O724       Mg749   2.135       .  S
O724        C745   1.237   1_545  S
O725        C756   1.274   1_554  A
O725       Mg749   2.310   1_565  S
C726        O728   1.275   1_554  A
C726        O740   1.280       .  A
C726       C1673   1.487       .  S
O727        C755   1.274   1_545  A
O727       Mg729   2.316       .  S
O728       Mg760   2.276       .  S
Mg729       O735   2.115       .  S
Mg729       O743   2.233       .  S
Mg729       O731   2.327       .  S
C730        O768   1.277   1_545  A
C730        O736   1.274       .  A
C730       C1257   1.481       .  S
O731        C738   1.279       .  A
H732        C745   1.081       .  S
C733        O747   1.235   1_556  S
C733        O748   1.269   1_545  A
C733        H758   1.081       .  S
O734        C757   1.275   1_556  A
O735       Mg749   2.142   1_556  S
O736       Mg766   2.283       .  S
C737        O750   1.272       .  A
C737        O742   1.278       .  A
C737       C1185   1.487       .  S
C738        O765   1.274   1_556  A
C738       C2041   1.491       .  S
Mg739       O746   2.162       .  S
Mg739       O747   2.154   1_565  S
Mg739       O740   2.360       .  S
Mg739       O741   2.293       .  S
Mg739       O768   2.297       .  S
O741        C745   1.270       .  A
O742       Mg749   2.330       .  S
O743        C762   1.271   1_545  A
O744        C764   1.275       .  A
O744       Mg760   2.296       .  S
O746       Mg760   2.146   1_554  S
O746        C757   1.239       .  S
O747       Mg766   2.130       .  S
O748       Mg760   2.291       .  S
Mg749       O765   2.277       .  S
O750       Mg766   2.252       .  S
H751        C756   1.081       .  S
O752       Mg760   2.161       .  S
O752        C755   1.239       .  S
H753        C755   1.081       .  S
H754        C757   1.081       .  S
O759       Mg766   2.287   1_556  S
C762        O767   1.281       .  A
C762       C2449   1.488       .  S
O763        C764   1.274       .  A
C764       C1169   1.485       .  S
C769        C770   1.539       .  S
C769        C775   1.533       .  S
C769        C773   1.542       .  S
C769       C1193   1.536       .  S
C770        H777   1.082       .  S
C770        C771   1.360       .  D
C771        C772   1.544       .  S
C771       C1353   1.482       .  S
C772        C776   1.553       .  S
C772        C774   1.538       .  S
C772        H778   1.108       .  S
C773        H779   1.086       .  S
C773        C774   1.372       .  D
C774       C1153   1.487       .  S
C775        H780   1.084       .  S
C775        C776   1.370       .  D
C776       C1513   1.503       .  S
O781       Mg783   2.141       .  S
O781       Mg789   2.144       .  S
O781        C816   1.237       .  S
C782        O795   1.238       .  S
C782        O819   1.272       .  A
C782        H821   1.081       .  S
Mg783       O812   2.160       .  S
Mg783       O827   2.317       .  S
Mg783       O823   2.269       .  S
Mg783       O794   2.291   1_554  S
O784       Mg826   2.150       .  S
O784       Mg809   2.131   1_556  S
O784        C805   1.238       .  S
O785        C816   1.271       .  A
O785       Mg809   2.301       .  S
C786        O788   1.277       .  A
C786        O800   1.277       .  A
C786       C1145   1.487       .  S
O787        C815   1.272       .  A
O787       Mg789   2.308       .  S
O788       Mg820   2.301       .  S
Mg789       O795   2.131       .  S
Mg789       O803   2.263       .  S
Mg789       O791   2.343       .  S
C790        O828   1.276       .  A
C790        O796   1.275       .  A
C790       C1993   1.490       .  S
O791        C798   1.280       .  A
H792        C805   1.081       .  S
C793        O807   1.236       .  S
C793        O808   1.268       .  A
C793        H818   1.081       .  S
O794        C817   1.271       .  A
O795       Mg809   2.144       .  S
O796       Mg826   2.292       .  S
C797        O810   1.270       .  A
C797        O802   1.274       .  A
C797       C1305   1.472       .  S
C798        O825   1.272       .  A
C798       C1161   1.489       .  S
Mg799       O806   2.135       .  S
Mg799       O807   2.146       .  S
Mg799       O800   2.295       .  S
Mg799       O801   2.294       .  S
Mg799       O828   2.302       .  S
O801        C805   1.271       .  A
O802       Mg809   2.296   1_556  S
O803        C822   1.274       .  A
O804        C824   1.276   1_556  A
O804       Mg820   2.298       .  S
O806       Mg820   2.166       .  S
O806        C817   1.238       .  S
O807       Mg826   2.107       .  S
O808       Mg820   2.283       .  S
Mg809       O825   2.254       .  S
O810       Mg826   2.243       .  S
H811        C816   1.081       .  S
O812       Mg820   2.155   1_554  S
O812        C815   1.238       .  S
H813        C815   1.081       .  S
H814        C817   1.081       .  S
O819       Mg826   2.297   1_554  S
C822        O827   1.278       .  A
C822       C1865   1.485       .  S
O823        C824   1.273       .  A
C824       C2201   1.474       .  S
O829       Mg831   2.112       .  S
O829       Mg837   2.147       .  S
O829        C864   1.235       .  S
C830        O843   1.237       .  S
C830        O867   1.270       .  A
C830        H869   1.081       .  S
Mg831       O860   2.138       .  S
Mg831       O875   2.274       .  S
Mg831       O871   2.238       .  S
Mg831       O842   2.301   1_455  S
O832       Mg874   2.163       .  S
O832       Mg857   2.148   1_655  S
O832        C853   1.238       .  S
O833        C864   1.267       .  A
O833       Mg857   2.282       .  S
C834        O836   1.272       .  A
C834        O848   1.281       .  A
C834       C2345   1.488       .  S
O835        C863   1.271       .  A
O835       Mg837   2.295       .  S
O836       Mg868   2.246   1_655  S
Mg837       O843   2.125       .  S
Mg837       O851   2.281       .  S
Mg837       O839   2.287       .  S
C838        O876   1.275       .  A
C838        O844   1.276       .  A
C838       C1945   1.485       .  S
O839        C846   1.276       .  A
H840        C853   1.081       .  S
C841        O855   1.238       .  S
C841        O856   1.273   1_655  A
C841        H866   1.081       .  S
O842        C865   1.272       .  A
O843       Mg857   2.160       .  S
O844       Mg874   2.287       .  S
C845        O858   1.275       .  A
C845        O850   1.275   1_655  A
C845       C1401   1.486       .  S
C846        O873   1.276       .  A
C846       C1121   1.487       .  S
Mg847       O854   2.146       .  S
Mg847       O855   2.163       .  S
Mg847       O848   2.347       .  S
Mg847       O849   2.305       .  S
Mg847       O876   2.293       .  S
O849        C853   1.272       .  A
O850       Mg857   2.278       .  S
O851        C870   1.274       .  A
O852        C872   1.279       .  A
O852       Mg868   2.339       .  S
O854       Mg868   2.144   1_655  S
O854        C865   1.238       .  S
O855       Mg874   2.156       .  S
O856       Mg868   2.309       .  S
Mg857       O873   2.301       .  S
O858       Mg874   2.302       .  S
H859        C864   1.081       .  S
O860       Mg868   2.125       .  S
O860        C863   1.238       .  S
H861        C863   1.081       .  S
H862        C865   1.081       .  S
O867       Mg874   2.291   1_455  S
C870        O875   1.272       .  A
C870       C1833   1.481       .  S
O871        C872   1.269       .  A
C872       C1105   1.487       .  S
O877       Mg879   2.142       .  S
O877       Mg885   2.157   1_655  S
O877        C912   1.239       .  S
C878        O891   1.237       .  S
C878        O915   1.271       .  A
C878        H917   1.081       .  S
Mg879       O908   2.155       .  S
Mg879       O923   2.287       .  S
Mg879       O919   2.253       .  S
Mg879       O890   2.284       .  S
O880       Mg922   2.154       .  S
O880       Mg905   2.141   1_554  S
O880        C901   1.237       .  S
O881        C912   1.273       .  A
O881       Mg905   2.303   1_655  S
C882        O884   1.276       .  A
C882        O896   1.272   1_655  A
C882       C1769   1.483       .  S
O883        C911   1.271       .  A
O883       Mg885   2.295       .  S
O884       Mg916   2.303   1_554  S
Mg885       O891   2.133       .  S
Mg885       O899   2.278   1_455  S
Mg885       O887   2.294       .  S
C886        O924   1.267       .  A
C886        O892   1.281       .  A
C886       C1089   1.484       .  S
O887        C894   1.276       .  A
H888        C901   1.081       .  S
C889        O903   1.239       .  S
C889        O904   1.274   1_554  A
C889        H914   1.081       .  S
O890        C913   1.267   1_556  A
O891       Mg905   2.153       .  S
O892       Mg922   2.364       .  S
C893        O906   1.277       .  A
C893        O898   1.279   1_554  A
C893       C1289   1.488       .  S
C894        O921   1.276       .  A
C894       C1521   1.490       .  S
Mg895       O902   2.109   1_455  S
Mg895       O903   2.141       .  S
Mg895       O896   2.269       .  S
Mg895       O897   2.292   1_455  S
Mg895       O924   2.212       .  S
O897        C901   1.271   1_655  A
O898       Mg905   2.318       .  S
O899        C918   1.273       .  A
O900        C920   1.281       .  A
O900       Mg916   2.344       .  S
O902       Mg916   2.150   1_554  S
O902        C913   1.234       .  S
O903       Mg922   2.157       .  S
O904       Mg916   2.308   1_455  S
Mg905       O921   2.301       .  S
O906       Mg922   2.280       .  S
H907        C912   1.081       .  S
O908       Mg916   2.142       .  S
O908        C911   1.238   1_655  S
H909        C911   1.081       .  S
H910        C913   1.081       .  S
O915       Mg922   2.301   1_556  S
C918        O923   1.274       .  A
C918       C2361   1.476       .  S
O919        C920   1.274       .  A
C920       C2177   1.488       .  S
C925        C926   1.532       .  S
C925        C931   1.534       .  S
C925        C929   1.541       .  S
C925       C1737   1.533       .  S
C926        H933   1.084       .  S
C926        C927   1.364       .  D
C927        C928   1.545       .  S
C927       C1129   1.489       .  S
C928        C932   1.542       .  S
C928        C930   1.542       .  S
C928        H934   1.109       .  S
C929        H935   1.085       .  S
C929        C930   1.374       .  D
C930       C1321   1.491       .  S
C931        H936   1.084       .  S
C931        C932   1.365       .  D
C932       C1097   1.486       .  S
O937       Mg939   2.136       .  S
O937       Mg945   2.134       .  S
O937        C972   1.237       .  S
C938        O951   1.236       .  S
C938        O975   1.269       .  A
C938        H977   1.081       .  S
Mg939       O968   2.147       .  S
Mg939       O983   2.325       .  S
Mg939       O979   2.237       .  S
Mg939       O950   2.287       .  S
O940       Mg982   2.156       .  S
O940       Mg965   2.141       .  S
O940        C961   1.239       .  S
O941        C972   1.272       .  A
O941       Mg965   2.305       .  S
C942        O944   1.277       .  A
C942        O956   1.274       .  A
C942       C1929   1.484       .  S
O943        C971   1.272       .  A
O943       Mg945   2.299       .  S
O944       Mg976   2.301       .  S
Mg945       O951   2.139       .  S
Mg945       O959   2.264       .  S
Mg945       O947   2.321       .  S
C946        O984   1.271       .  A
C946        O952   1.274       .  A
C946       C1881   1.479       .  S
O947        C954   1.277       .  A
H948        C961   1.081       .  S
C949        O963   1.238       .  S
C949        O964   1.271       .  A
C949        H974   1.081       .  S
O950        C973   1.269       .  A
O951       Mg965   2.143       .  S
O952       Mg982   2.299       .  S
C953        O966   1.270       .  A
C953        O958   1.278       .  A
C953       C2153   1.478       .  S
C954        O981   1.273       .  A
C954       C1809   1.472       .  S
Mg955       O962   2.117       .  S
Mg955       O963   2.144       .  S
Mg955       O956   2.276       .  S
Mg955       O957   2.300       .  S
Mg955       O984   2.257       .  S
O957        C961   1.273       .  A
O958       Mg965   2.331       .  S
O959        C978   1.274       .  A
O960        C980   1.280       .  A
O960       Mg976   2.344       .  S
O962       Mg976   2.156       .  S
O962        C973   1.237       .  S
O963       Mg982   2.122       .  S
O964       Mg976   2.297       .  S
Mg965       O981   2.261       .  S
O966       Mg982   2.235       .  S
H967        C972   1.081       .  S
O968       Mg976   2.145       .  S
O968        C971   1.239       .  S
H969        C971   1.081       .  S
H970        C973   1.081       .  S
O975       Mg982   2.293       .  S
C978        O983   1.277       .  A
C978       C2009   1.485       .  S
O979        C980   1.273       .  A
C980       C1609   1.479       .  S
C985        C986   1.526   1_655  S
C985        C991   1.523       .  S
C985        C989   1.548       .  S
C985       C1225   1.527       .  S
C986        H993   1.087       .  S
C986        C987   1.361       .  D
C987        C988   1.543   1_455  S
C987       C1073   1.483       .  S
C988        C992   1.551       .  S
C988        C990   1.549       .  S
C988        H994   1.107       .  S
C989        H995   1.082       .  S
C989        C990   1.380       .  D
C990       C1113   1.498       .  S
C991        H996   1.085       .  S
C991        C992   1.364       .  D
C992       C2585   1.500       .  S
O997       Mg999   2.134       .  S
O997      Mg1005   2.147       .  S
O997       C1032   1.239       .  S
C998       O1011   1.237       .  S
C998       O1035   1.270       .  A
C998       H1037   1.081       .  S
Mg999      O1028   2.149       .  S
Mg999      O1043   2.323       .  S
Mg999      O1039   2.264       .  S
Mg999      O1010   2.296       .  S
O1000     Mg1042   2.148       .  S
O1000     Mg1025   2.135       .  S
O1000      C1021   1.237       .  S
O1001      C1032   1.272       .  A
O1001     Mg1025   2.301       .  S
C1002      O1004   1.274       .  A
C1002      O1016   1.275       .  A
C1002      C1057   1.477       .  S
O1003      C1031   1.271       .  A
O1003     Mg1005   2.296       .  S
O1004     Mg1036   2.271       .  S
Mg1005     O1011   2.138       .  S
Mg1005     O1019   2.279       .  S
Mg1005     O1007   2.312       .  S
C1006      O1044   1.272       .  A
C1006      O1012   1.278       .  A
C1006      C1961   1.482       .  S
O1007      C1014   1.278       .  A
H1008      C1021   1.081       .  S
C1009      O1023   1.238       .  S
C1009      O1024   1.271       .  A
C1009      H1034   1.081       .  S
O1010      C1033   1.271       .  A
O1011     Mg1025   2.151       .  S
O1012     Mg1042   2.324       .  S
C1013      O1026   1.272       .  A
C1013      O1018   1.278       .  A
C1013      C1801   1.471       .  S
C1014      O1041   1.274       .  A
C1014      C1081   1.484       .  S
Mg1015     O1022   2.129       .  S
Mg1015     O1023   2.147       .  S
Mg1015     O1016   2.297       .  S
Mg1015     O1017   2.293       .  S
Mg1015     O1044   2.249       .  S
O1017      C1021   1.270       .  A
O1018     Mg1025   2.333       .  S
O1019      C1038   1.275       .  A
O1020      C1040   1.278       .  A
O1020     Mg1036   2.321       .  S
O1022     Mg1036   2.151       .  S
O1022      C1033   1.237       .  S
O1023     Mg1042   2.130       .  S
O1024     Mg1036   2.295       .  S
Mg1025     O1041   2.264       .  S
O1026     Mg1042   2.247       .  S
H1027      C1032   1.081       .  S
O1028     Mg1036   2.134       .  S
O1028      C1031   1.238       .  S
H1029      C1031   1.081       .  S
H1030      C1033   1.081       .  S
O1035     Mg1042   2.295       .  S
C1038      O1043   1.278       .  A
C1038      C2073   1.486       .  S
O1039      C1040   1.274       .  A
C1040      C1657   1.483       .  S
C1045      C1046   1.533       .  S
C1045      C1051   1.539       .  S
C1045      C1049   1.542       .  S
C1045      C1065   1.533       .  S
C1046      H1053   1.086       .  S
C1046      C1047   1.364       .  D
C1047      C1048   1.545       .  S
C1047      C1177   1.487       .  S
C1048      C1052   1.541       .  S
C1048      C1050   1.537       .  S
C1048      H1054   1.110       .  S
C1049      H1055   1.086       .  S
C1049      C1050   1.371       .  D
C1050      C2529   1.481       .  S
C1051      H1056   1.081       .  S
C1051      C1052   1.366       .  D
C1052      C1137   1.488       .  S
C1057      C1058   1.405       .  A
C1057      C1062   1.406       .  A
C1058      H1067   1.083       .  S
C1058      C1059   1.397       .  A
C1059      H1068   1.084       .  S
C1059      C1060   1.403       .  A
C1060      C1066   1.404       .  A
C1060      C1061   1.412       .  A
C1061      C1063   1.400       .  A
C1061      C1062   1.405       .  A
C1062      H1069   1.084       .  S
C1063      H1070   1.084       .  S
C1063      C1064   1.398       .  A
C1064      H1071   1.083       .  S
C1064      C1065   1.410       .  A
C1065      C1066   1.413       .  A
C1066      H1072   1.079       .  S
C1073      C1074   1.404       .  A
C1073      C1078   1.406       .  A
C1074      H1083   1.083       .  S
C1074      C1075   1.401       .  A
C1075      H1084   1.084       .  S
C1075      C1076   1.405       .  A
C1076      C1082   1.406       .  A
C1076      C1077   1.413       .  A
C1077      C1079   1.401       .  A
C1077      C1078   1.401       .  A
C1078      H1085   1.085       .  S
C1079      H1086   1.084       .  S
C1079      C1080   1.395       .  A
C1080      H1087   1.083       .  S
C1080      C1081   1.406       .  A
C1081      C1082   1.410       .  A
C1082      H1088   1.084       .  S
C1089      C1090   1.409       .  A
C1089      C1094   1.409       .  A
C1090      H1099   1.083       .  S
C1090      C1091   1.389       .  A
C1091      H1100   1.084       .  S
C1091      C1092   1.396       .  A
C1092      C1098   1.399       .  A
C1092      C1093   1.415       .  A
C1093      C1095   1.405       .  A
C1093      C1094   1.413       .  A
C1094      H1101   1.084       .  S
C1095      H1102   1.083       .  S
C1095      C1096   1.404       .  A
C1096      H1103   1.083       .  S
C1096      C1097   1.406       .  A
C1097      C1098   1.403       .  A
C1098      H1104   1.085       .  S
C1105      C1106   1.410       .  A
C1105      C1110   1.405   1_455  A
C1106      H1115   1.083       .  S
C1106      C1107   1.398       .  A
C1107      H1116   1.084       .  S
C1107      C1108   1.400       .  A
C1108      C1114   1.409       .  A
C1108      C1109   1.414   1_455  A
C1109      C1111   1.397       .  A
C1109      C1110   1.406       .  A
C1110      H1117   1.084       .  S
C1111      H1118   1.084       .  S
C1111      C1112   1.395       .  A
C1112      H1119   1.072       .  S
C1112      C1113   1.408       .  A
C1113      C1114   1.408   1_655  A
C1114      H1120   1.083       .  S
C1121      C1122   1.407       .  A
C1121      C1126   1.413       .  A
C1122      H1131   1.083       .  S
C1122      C1123   1.390       .  A
C1123      H1132   1.084       .  S
C1123      C1124   1.397       .  A
C1124      C1130   1.397       .  A
C1124      C1125   1.412       .  A
C1125      C1127   1.409       .  A
C1125      C1126   1.413       .  A
C1126      H1133   1.084       .  S
C1127      H1134   1.083       .  S
C1127      C1128   1.407       .  A
C1128      H1135   1.083       .  S
C1128      C1129   1.404       .  A
C1129      C1130   1.405       .  A
C1130      H1136   1.085       .  S
C1137      C1138   1.404       .  A
C1137      C1142   1.405       .  A
C1138      H1147   1.083       .  S
C1138      C1139   1.406       .  A
C1139      H1148   1.083       .  S
C1139      C1140   1.408       .  A
C1140      C1146   1.413       .  A
C1140      C1141   1.413       .  A
C1141      C1143   1.398       .  A
C1141      C1142   1.398       .  A
C1142      H1149   1.084       .  S
C1143      H1150   1.084       .  S
C1143      C1144   1.391       .  A
C1144      H1151   1.083       .  S
C1144      C1145   1.407       .  A
C1145      C1146   1.413       .  A
C1146      H1152   1.084       .  S
C1153      C1154   1.405       .  A
C1153      C1158   1.409       .  A
C1154      H1163   1.083       .  S
C1154      C1155   1.398       .  A
C1155      H1164   1.084       .  S
C1155      C1156   1.403       .  A
C1156      C1162   1.404       .  A
C1156      C1157   1.412       .  A
C1157      C1159   1.404       .  A
C1157      C1158   1.407       .  A
C1158      H1165   1.084       .  S
C1159      H1166   1.084       .  S
C1159      C1160   1.402       .  A
C1160      H1167   1.083       .  S
C1160      C1161   1.407       .  A
C1161      C1162   1.410       .  A
C1162      H1168   1.084       .  S
C1169      C1170   1.407       .  A
C1169      C1174   1.410       .  A
C1170      H1179   1.083       .  S
C1170      C1171   1.394       .  A
C1171      H1180   1.084       .  S
C1171      C1172   1.400       .  A
C1172      C1178   1.401       .  A
C1172      C1173   1.413       .  A
C1173      C1175   1.405       .  A
C1173      C1174   1.409       .  A
C1174      H1181   1.084       .  S
C1175      H1182   1.083       .  S
C1175      C1176   1.402       .  A
C1176      H1183   1.083       .  S
C1176      C1177   1.405       .  A
C1177      C1178   1.406       .  A
C1178      H1184   1.084       .  S
C1185      C1186   1.407       .  A
C1185      C1190   1.408       .  A
C1186      H1195   1.083       .  S
C1186      C1187   1.403       .  A
C1187      H1196   1.083       .  S
C1187      C1188   1.405       .  A
C1188      C1194   1.408       .  A
C1188      C1189   1.410       .  A
C1189      C1191   1.398       .  A
C1189      C1190   1.401       .  A
C1190      H1197   1.084       .  S
C1191      H1198   1.084       .  S
C1191      C1192   1.395       .  A
C1192      H1199   1.077       .  S
C1192      C1193   1.412       .  A
C1193      C1194   1.415       .  A
C1194      H1200   1.084       .  S
C1201      C1202   1.408       .  A
C1201      C1206   1.411       .  A
C1202      H1211   1.079       .  S
C1202      C1203   1.407       .  A
C1203      H1212   1.083       .  S
C1203      C1204   1.406       .  A
C1204      C1210   1.416       .  A
C1204      C1205   1.412       .  A
C1205      C1207   1.398       .  A
C1205      C1206   1.401       .  A
C1206      H1213   1.082       .  S
C1207      H1214   1.084       .  S
C1207      C1208   1.392       .  A
C1208      H1215   1.083       .  S
C1208      C1209   1.408       .  A
C1209      C1210   1.413       .  A
C1210      H1216   1.084       .  S
C1217      C1218   1.400       .  A
C1217      C1222   1.407       .  A
C1218      H1227   1.084       .  S
C1218      C1219   1.394       .  A
C1219      H1228   1.084       .  S
C1219      C1220   1.402       .  A
C1220      C1226   1.396       .  A
C1220      C1221   1.411       .  A
C1221      C1223   1.407       .  A
C1221      C1222   1.409       .  A
C1222      H1229   1.084       .  S
C1223      H1230   1.083       .  S
C1223      C1224   1.405       .  A
C1224      H1231   1.079       .  S
C1224      C1225   1.408       .  A
C1225      C1226   1.411       .  A
C1226      H1232   1.085       .  S
C1233      C1234   1.405       .  A
C1233      C1238   1.410       .  A
C1234      H1243   1.083       .  S
C1234      C1235   1.409       .  A
C1235      H1244   1.083       .  S
C1235      C1236   1.410       .  A
C1236      C1242   1.415       .  A
C1236      C1237   1.411       .  A
C1237      C1239   1.401       .  A
C1237      C1238   1.402       .  A
C1238      H1245   1.084       .  S
C1239      H1246   1.084       .  S
C1239      C1240   1.395       .  A
C1240      H1247   1.083       .  S
C1240      C1241   1.406       .  A
C1241      C1242   1.416       .  A
C1242      H1248   1.084       .  S
C1249      C1250   1.412   1_545  A
C1249      C1254   1.410       .  A
C1250      H1259   1.083       .  S
C1250      C1251   1.400       .  A
C1251      H1260   1.084       .  S
C1251      C1252   1.401       .  A
C1252      C1258   1.409       .  A
C1252      C1253   1.413   1_565  A
C1253      C1255   1.400       .  A
C1253      C1254   1.404       .  A
C1254      H1261   1.078       .  S
C1255      H1262   1.084       .  S
C1255      C1256   1.394       .  A
C1256      H1263   1.083       .  S
C1256      C1257   1.406       .  A
C1257      C1258   1.407   1_545  A
C1258      H1264   1.084       .  S
C1265      C1266   1.404       .  A
C1265      C1270   1.403   1_545  A
C1266      H1275   1.083       .  S
C1266      C1267   1.395       .  A
C1267      H1276   1.084       .  S
C1267      C1268   1.400       .  A
C1268      C1274   1.405       .  A
C1268      C1269   1.416   1_545  A
C1269      C1271   1.400       .  A
C1269      C1270   1.408       .  A
C1270      H1277   1.084       .  S
C1271      H1278   1.084       .  S
C1271      C1272   1.398       .  A
C1272      H1279   1.083       .  S
C1272      C1273   1.410       .  A
C1273      C1274   1.405   1_565  A
C1274      H1280   1.084       .  S
C1281      C1282   1.406       .  A
C1281      C1286   1.406   1_554  A
C1282      H1291   1.083       .  S
C1282      C1283   1.399       .  A
C1283      H1292   1.084       .  S
C1283      C1284   1.403       .  A
C1284      C1290   1.407       .  A
C1284      C1285   1.413       .  A
C1285      C1287   1.402   1_554  A
C1285      C1286   1.406   1_554  A
C1286      H1293   1.084       .  S
C1287      H1294   1.084       .  S
C1287      C1288   1.398       .  A
C1288      H1295   1.083       .  S
C1288      C1289   1.408   1_556  A
C1289      C1290   1.410       .  A
C1290      H1296   1.084       .  S
C1297      C1298   1.408   1_554  A
C1297      C1302   1.409       .  A
C1298      H1307   1.080       .  S
C1298      C1299   1.402       .  A
C1299      H1308   1.084       .  S
C1299      C1300   1.405       .  A
C1300      C1306   1.403       .  A
C1300      C1301   1.410   1_556  A
C1301      C1303   1.401       .  A
C1301      C1302   1.394       .  A
C1302      H1309   1.084       .  S
C1303      H1310   1.084       .  S
C1303      C1304   1.393       .  A
C1304      H1311   1.083       .  S
C1304      C1305   1.402   1_554  A
C1305      C1306   1.409       .  A
C1306      H1312   1.084       .  S
C1313      C1314   1.408       .  A
C1313      C1318   1.410       .  A
C1314      H1323   1.083       .  S
C1314      C1315   1.396       .  A
C1315      H1324   1.084       .  S
C1315      C1316   1.400       .  A
C1316      C1322   1.404       .  A
C1316      C1317   1.413       .  A
C1317      C1319   1.404       .  A
C1317      C1318   1.409       .  A
C1318      H1325   1.084       .  S
C1319      H1326   1.083       .  S
C1319      C1320   1.401       .  A
C1320      H1327   1.082       .  S
C1320      C1321   1.407       .  A
C1321      C1322   1.406       .  A
C1322      H1328   1.083       .  S
C1329      C1330   1.410       .  A
C1329      C1334   1.408       .  A
C1330      H1339   1.083       .  S
C1330      C1331   1.394       .  A
C1331      H1340   1.084       .  S
C1331      C1332   1.398       .  A
C1332      C1338   1.405       .  A
C1332      C1333   1.416       .  A
C1333      C1335   1.403       .  A
C1333      C1334   1.410       .  A
C1334      H1341   1.084       .  S
C1335      H1342   1.083       .  S
C1335      C1336   1.400       .  A
C1336      H1343   1.079       .  S
C1336      C1337   1.403       .  A
C1337      C1338   1.402       .  A
C1338      H1344   1.085       .  S
C1345      C1346   1.409       .  A
C1345      C1350   1.411       .  A
C1346      H1355   1.083       .  S
C1346      C1347   1.396       .  A
C1347      H1356   1.084       .  S
C1347      C1348   1.399       .  A
C1348      C1354   1.408       .  A
C1348      C1349   1.415       .  A
C1349      C1351   1.405       .  A
C1349      C1350   1.413       .  A
C1350      H1357   1.084       .  S
C1351      H1358   1.083       .  S
C1351      C1352   1.402       .  A
C1352      H1359   1.084       .  S
C1352      C1353   1.405       .  A
C1353      C1354   1.402       .  A
C1354      H1360   1.084       .  S
C1361      C1362   1.405       .  A
C1361      C1366   1.408       .  A
C1362      H1371   1.082       .  S
C1362      C1363   1.403       .  A
C1363      H1372   1.083       .  S
C1363      C1364   1.405       .  A
C1364      C1370   1.411       .  A
C1364      C1365   1.413       .  A
C1365      C1367   1.401       .  A
C1365      C1366   1.404       .  A
C1366      H1373   1.084       .  S
C1367      H1374   1.084       .  S
C1367      C1368   1.396       .  A
C1368      H1375   1.083       .  S
C1368      C1369   1.407       .  A
C1369      C1370   1.411       .  A
C1370      H1376   1.084       .  S
C1377      C1378   1.401       .  A
C1377      C1382   1.400       .  A
C1378      H1387   1.083       .  S
C1378      C1379   1.402       .  A
C1379      H1388   1.083       .  S
C1379      C1380   1.406       .  A
C1380      C1386   1.407       .  A
C1380      C1381   1.414       .  A
C1381      C1383   1.399       .  A
C1381      C1382   1.397       .  A
C1382      H1389   1.085       .  S
C1383      H1390   1.084       .  S
C1383      C1384   1.392       .  A
C1384      H1391   1.083       .  S
C1384      C1385   1.404       .  A
C1385      C1386   1.407       .  A
C1386      H1392   1.084       .  S
C1393      C1394   1.405       .  A
C1393      C1398   1.403       .  A
C1394      H1403   1.083       .  S
C1394      C1395   1.407       .  A
C1395      H1404   1.083       .  S
C1395      C1396   1.408       .  A
C1396      C1402   1.413       .  A
C1396      C1397   1.413       .  A
C1397      C1399   1.396   1_655  A
C1397      C1398   1.396       .  A
C1398      H1405   1.084   1_655  S
C1399      H1406   1.084       .  S
C1399      C1400   1.389       .  A
C1400      H1407   1.083       .  S
C1400      C1401   1.408   1_455  A
C1401      C1402   1.413       .  A
C1402      H1408   1.084       .  S
C1409      C1410   1.405   1_655  A
C1409      C1414   1.400       .  A
C1410      H1419   1.084       .  S
C1410      C1411   1.394       .  A
C1411      H1420   1.084       .  S
C1411      C1412   1.400   1_455  A
C1412      C1418   1.404       .  A
C1412      C1413   1.417       .  A
C1413      C1415   1.399       .  A
C1413      C1414   1.405       .  A
C1414      H1421   1.085       .  S
C1415      H1422   1.084       .  S
C1415      C1416   1.396       .  A
C1416      H1423   1.083       .  S
C1416      C1417   1.409       .  A
C1417      C1418   1.403       .  A
C1418      H1424   1.084   1_655  S
C1425      C1426   1.413       .  A
C1425      C1430   1.410       .  A
C1426      H1435   1.079       .  S
C1426      C1427   1.390       .  A
C1427      H1436   1.084       .  S
C1427      C1428   1.395       .  A
C1428      C1434   1.399       .  A
C1428      C1429   1.413       .  A
C1429      C1431   1.403       .  A
C1429      C1430   1.407       .  A
C1430      H1437   1.083       .  S
C1431      H1438   1.084       .  S
C1431      C1432   1.400       .  A
C1432      H1439   1.083       .  S
C1432      C1433   1.408       .  A
C1433      C1434   1.403       .  A
C1434      H1440   1.084       .  S
C1441      C1442   1.405       .  A
C1441      C1446   1.404   1_545  A
C1442      H1451   1.083       .  S
C1442      C1443   1.394       .  A
C1443      H1452   1.084       .  S
C1443      C1444   1.400       .  A
C1444      C1450   1.402       .  A
C1444      C1445   1.415   1_545  A
C1445      C1447   1.402       .  A
C1445      C1446   1.407       .  A
C1446      H1453   1.084       .  S
C1447      H1454   1.084       .  S
C1447      C1448   1.399       .  A
C1448      H1455   1.083       .  S
C1448      C1449   1.407       .  A
C1449      C1450   1.405   1_565  A
C1450      H1456   1.084       .  S
C1457      C1458   1.399       .  A
C1457      C1462   1.406       .  A
C1458      H1467   1.084       .  S
C1458      C1459   1.390       .  A
C1459      H1468   1.084       .  S
C1459      C1460   1.400       .  A
C1460      C1466   1.390       .  A
C1460      C1461   1.411       .  A
C1461      C1463   1.406       .  A
C1461      C1462   1.405       .  A
C1462      H1469   1.084       .  S
C1463      H1470   1.083       .  S
C1463      C1464   1.404       .  A
C1464      H1471   1.080       .  S
C1464      C1465   1.407       .  A
C1465      C1466   1.408       .  A
C1466      H1472   1.085       .  S
C1473      C1474   1.401       .  A
C1473      C1478   1.404       .  A
C1474      H1483   1.083       .  S
C1474      C1475   1.403       .  A
C1475      H1484   1.083       .  S
C1475      C1476   1.407       .  A
C1476      C1482   1.406       .  A
C1476      C1477   1.412       .  A
C1477      C1479   1.399       .  A
C1477      C1478   1.393       .  A
C1478      H1485   1.085       .  S
C1479      H1486   1.084       .  S
C1479      C1480   1.391       .  A
C1480      H1487   1.083       .  S
C1480      C1481   1.404       .  A
C1481      C1482   1.410       .  A
C1482      H1488   1.084       .  S
C1489      C1490   1.409       .  A
C1489      C1494   1.409       .  A
C1490      H1499   1.083       .  S
C1490      C1491   1.400       .  A
C1491      H1500   1.084       .  S
C1491      C1492   1.402       .  A
C1492      C1498   1.410       .  A
C1492      C1493   1.415       .  A
C1493      C1495   1.402       .  A
C1493      C1494   1.409       .  A
C1494      H1501   1.084       .  S
C1495      H1502   1.084       .  S
C1495      C1496   1.399       .  A
C1496      H1503   1.083       .  S
C1496      C1497   1.406       .  A
C1497      C1498   1.407       .  A
C1498      H1504   1.084       .  S
C1505      C1506   1.407       .  A
C1505      C1510   1.414       .  A
C1506      H1515   1.083       .  S
C1506      C1507   1.395       .  A
C1507      H1516   1.084       .  S
C1507      C1508   1.401       .  A
C1508      C1514   1.402       .  A
C1508      C1509   1.410       .  A
C1509      C1511   1.406       .  A
C1509      C1510   1.413       .  A
C1510      H1517   1.084       .  S
C1511      H1518   1.083       .  S
C1511      C1512   1.406       .  A
C1512      H1519   1.081       .  S
C1512      C1513   1.407       .  A
C1513      C1514   1.413       .  A
C1514      H1520   1.082       .  S
C1521      C1522   1.407       .  A
C1521      C1526   1.414       .  A
C1522      H1531   1.083   1_455  S
C1522      C1523   1.391   1_455  A
C1523      H1532   1.084       .  S
C1523      C1524   1.398   1_655  A
C1524      C1530   1.399   1_455  A
C1524      C1525   1.412       .  A
C1525      C1527   1.408       .  A
C1525      C1526   1.414       .  A
C1526      H1533   1.084       .  S
C1527      H1534   1.083       .  S
C1527      C1528   1.407       .  A
C1528      H1535   1.082       .  S
C1528      C1529   1.406       .  A
C1529      C1530   1.407   1_455  A
C1530      H1536   1.083       .  S
C1537      C1538   1.405   1_655  A
C1537      C1542   1.407       .  A
C1538      H1547   1.083       .  S
C1538      C1539   1.400       .  A
C1539      H1548   1.083       .  S
C1539      C1540   1.404       .  A
C1540      C1546   1.406       .  A
C1540      C1541   1.413   1_455  A
C1541      C1543   1.401       .  A
C1541      C1542   1.402       .  A
C1542      H1549   1.084       .  S
C1543      H1550   1.084       .  S
C1543      C1544   1.396       .  A
C1544      H1551   1.083       .  S
C1544      C1545   1.407       .  A
C1545      C1546   1.408   1_655  A
C1546      H1552   1.084       .  S
C1553      C1554   1.407       .  A
C1553      C1558   1.409       .  A
C1554      H1563   1.083       .  S
C1554      C1555   1.396       .  A
C1555      H1564   1.084       .  S
C1555      C1556   1.400       .  A
C1556      C1562   1.403       .  A
C1556      C1557   1.414       .  A
C1557      C1559   1.404       .  A
C1557      C1558   1.406       .  A
C1558      H1565   1.084       .  S
C1559      H1566   1.084       .  S
C1559      C1560   1.399       .  A
C1560      H1567   1.083       .  S
C1560      C1561   1.404       .  A
C1561      C1562   1.402       .  A
C1562      H1568   1.085       .  S
C1569      C1570   1.405       .  A
C1569      C1574   1.411       .  A
C1570      H1579   1.084       .  S
C1570      C1571   1.387       .  A
C1571      H1580   1.084       .  S
C1571      C1572   1.396       .  A
C1572      C1578   1.394       .  A
C1572      C1573   1.412       .  A
C1573      C1575   1.408       .  A
C1573      C1574   1.414       .  A
C1574      H1581   1.084       .  S
C1575      H1582   1.083       .  S
C1575      C1576   1.408       .  A
C1576      H1583   1.082       .  S
C1576      C1577   1.407       .  A
C1577      C1578   1.406       .  A
C1578      H1584   1.082       .  S
C1585      C1586   1.401       .  A
C1585      C1590   1.409       .  A
C1586      H1595   1.084       .  S
C1586      C1587   1.390       .  A
C1587      H1596   1.084       .  S
C1587      C1588   1.399       .  A
C1588      C1594   1.393       .  A
C1588      C1589   1.411       .  A
C1589      C1591   1.408       .  A
C1589      C1590   1.410       .  A
C1590      H1597   1.084       .  S
C1591      H1598   1.083       .  S
C1591      C1592   1.407       .  A
C1592      H1599   1.080       .  S
C1592      C1593   1.408       .  A
C1593      C1594   1.408       .  A
C1594      H1600   1.085       .  S
C1601      C1602   1.405       .  A
C1601      C1606   1.405       .  A
C1602      H1611   1.077       .  S
C1602      C1603   1.403       .  A
C1603      H1612   1.083       .  S
C1603      C1604   1.404       .  A
C1604      C1610   1.411       .  A
C1604      C1605   1.414       .  A
C1605      C1607   1.397       .  A
C1605      C1606   1.399       .  A
C1606      H1613   1.084       .  S
C1607      H1614   1.084       .  S
C1607      C1608   1.390       .  A
C1608      H1615   1.083       .  S
C1608      C1609   1.406       .  A
C1609      C1610   1.408       .  A
C1610      H1616   1.084       .  S
C1617      C1618   1.404       .  A
C1617      C1622   1.404       .  A
C1618      H1627   1.083       .  S
C1618      C1619   1.402       .  A
C1619      H1628   1.083       .  S
C1619      C1620   1.405       .  A
C1620      C1626   1.409       .  A
C1620      C1621   1.413       .  A
C1621      C1623   1.399       .  A
C1621      C1622   1.401       .  A
C1622      H1629   1.084       .  S
C1623      H1630   1.084       .  S
C1623      C1624   1.394       .  A
C1624      H1631   1.083       .  S
C1624      C1625   1.408       .  A
C1625      C1626   1.410       .  A
C1626      H1632   1.084       .  S
C1633      C1634   1.410       .  A
C1633      C1638   1.411       .  A
C1634      H1643   1.079       .  S
C1634      C1635   1.402       .  A
C1635      H1644   1.084       .  S
C1635      C1636   1.403       .  A
C1636      C1642   1.408       .  A
C1636      C1637   1.412       .  A
C1637      C1639   1.402       .  A
C1637      C1638   1.401       .  A
C1638      H1645   1.084       .  S
C1639      H1646   1.084       .  S
C1639      C1640   1.396       .  A
C1640      H1647   1.083       .  S
C1640      C1641   1.403       .  A
C1641      C1642   1.407       .  A
C1642      H1648   1.084       .  S
C1649      C1650   1.411       .  A
C1649      C1654   1.413       .  A
C1650      H1659   1.083       .  S
C1650      C1651   1.398       .  A
C1651      H1660   1.084       .  S
C1651      C1652   1.401       .  A
C1652      C1658   1.404       .  A
C1652      C1653   1.411       .  A
C1653      C1655   1.404       .  A
C1653      C1654   1.406       .  A
C1654      H1661   1.080       .  S
C1655      H1662   1.084       .  S
C1655      C1656   1.399       .  A
C1656      H1663   1.083       .  S
C1656      C1657   1.406       .  A
C1657      C1658   1.408       .  A
C1658      H1664   1.084       .  S
C1665      C1666   1.405       .  A
C1665      C1670   1.408       .  A
C1666      H1675   1.083       .  S
C1666      C1667   1.409       .  A
C1667      H1676   1.083       .  S
C1667      C1668   1.409       .  A
C1668      C1674   1.418       .  A
C1668      C1669   1.413       .  A
C1669      C1671   1.400       .  A
C1669      C1670   1.403       .  A
C1670      H1677   1.084       .  S
C1671      H1678   1.084   1_554  S
C1671      C1672   1.394   1_554  A
C1672      H1679   1.084       .  S
C1672      C1673   1.404   1_556  A
C1673      C1674   1.413       .  A
C1674      H1680   1.084       .  S
C1681      C1682   1.405       .  A
C1681      C1686   1.406   1_554  A
C1682      H1691   1.083       .  S
C1682      C1683   1.402       .  A
C1683      H1692   1.084       .  S
C1683      C1684   1.405       .  A
C1684      C1690   1.409       .  A
C1684      C1685   1.413   1_554  A
C1685      C1687   1.401       .  A
C1685      C1686   1.404       .  A
C1686      H1693   1.085       .  S
C1687      H1694   1.084       .  S
C1687      C1688   1.397       .  A
C1688      H1695   1.083       .  S
C1688      C1689   1.407   1_556  A
C1689      C1690   1.411       .  A
C1690      H1696   1.084       .  S
C1697      C1698   1.407       .  A
C1697      C1702   1.411       .  A
C1698      H1707   1.083       .  S
C1698      C1699   1.395       .  A
C1699      H1708   1.084       .  S
C1699      C1700   1.400       .  A
C1700      C1706   1.405       .  A
C1700      C1701   1.413       .  A
C1701      C1703   1.405       .  A
C1701      C1702   1.414       .  A
C1702      H1709   1.084       .  S
C1703      H1710   1.083       .  S
C1703      C1704   1.404       .  A
C1704      H1711   1.082       .  S
C1704      C1705   1.409       .  A
C1705      C1706   1.407       .  A
C1706      H1712   1.083       .  S
C1713      C1714   1.408       .  A
C1713      C1718   1.408       .  A
C1714      H1723   1.083       .  S
C1714      C1715   1.399       .  A
C1715      H1724   1.084       .  S
C1715      C1716   1.402       .  A
C1716      C1722   1.406       .  A
C1716      C1717   1.414       .  A
C1717      C1719   1.402       .  A
C1717      C1718   1.405       .  A
C1718      H1725   1.084       .  S
C1719      H1726   1.084       .  S
C1719      C1720   1.397       .  A
C1720      H1727   1.083       .  S
C1720      C1721   1.404       .  A
C1721      C1722   1.404       .  A
C1722      H1728   1.085       .  S
C1729      C1730   1.406       .  A
C1729      C1734   1.406       .  A
C1730      H1739   1.083       .  S
C1730      C1731   1.399       .  A
C1731      H1740   1.084       .  S
C1731      C1732   1.404       .  A
C1732      C1738   1.405       .  A
C1732      C1733   1.411       .  A
C1733      C1735   1.400       .  A
C1733      C1734   1.402       .  A
C1734      H1741   1.084       .  S
C1735      H1742   1.084       .  S
C1735      C1736   1.396       .  A
C1736      H1743   1.081       .  S
C1736      C1737   1.410       .  A
C1737      C1738   1.413       .  A
C1738      H1744   1.082       .  S
C1745      C1746   1.410       .  A
C1745      C1750   1.411       .  A
C1746      H1755   1.083       .  S
C1746      C1747   1.402       .  A
C1747      H1756   1.084       .  S
C1747      C1748   1.402       .  A
C1748      C1754   1.414       .  A
C1748      C1749   1.415       .  A
C1749      C1751   1.403       .  A
C1749      C1750   1.413       .  A
C1750      H1757   1.084       .  S
C1751      H1758   1.083       .  S
C1751      C1752   1.400       .  A
C1752      H1759   1.083       .  S
C1752      C1753   1.405       .  A
C1753      C1754   1.407       .  A
C1754      H1760   1.084       .  S
C1761      C1762   1.412       .  A
C1761      C1766   1.407       .  A
C1762      H1771   1.078       .  S
C1762      C1763   1.403       .  A
C1763      H1772   1.084   1_455  S
C1763      C1764   1.403       .  A
C1764      C1770   1.411   1_455  A
C1764      C1765   1.413       .  A
C1765      C1767   1.398       .  A
C1765      C1766   1.399       .  A
C1766      H1773   1.085       .  S
C1767      H1774   1.084       .  S
C1767      C1768   1.392       .  A
C1768      H1775   1.083       .  S
C1768      C1769   1.407   1_455  A
C1769      C1770   1.409       .  A
C1770      H1776   1.084       .  S
C1777      C1778   1.407       .  A
C1777      C1782   1.408   1_455  A
C1778      H1787   1.083       .  S
C1778      C1779   1.397       .  A
C1779      H1788   1.084       .  S
C1779      C1780   1.401       .  A
C1780      C1786   1.404       .  A
C1780      C1781   1.414   1_455  A
C1781      C1783   1.402       .  A
C1781      C1782   1.405       .  A
C1782      H1789   1.084       .  S
C1783      H1790   1.084       .  S
C1783      C1784   1.398       .  A
C1784      H1791   1.083       .  S
C1784      C1785   1.405   1_655  A
C1785      C1786   1.405       .  A
C1786      H1792   1.084       .  S
C1793      C1794   1.402       .  A
C1793      C1798   1.407       .  A
C1794      H1803   1.084       .  S
C1794      C1795   1.393       .  A
C1795      H1804   1.084       .  S
C1795      C1796   1.400       .  A
C1796      C1802   1.400       .  A
C1796      C1797   1.415       .  A
C1797      C1799   1.407       .  A
C1797      C1798   1.410       .  A
C1798      H1805   1.083       .  S
C1799      H1806   1.083       .  S
C1799      C1800   1.404       .  A
C1800      H1807   1.083       .  S
C1800      C1801   1.403       .  A
C1801      C1802   1.401       .  A
C1802      H1808   1.085       .  S
C1809      C1810   1.403       .  A
C1809      C1814   1.405       .  A
C1810      H1819   1.083       .  S
C1810      C1811   1.396       .  A
C1811      H1820   1.084       .  S
C1811      C1812   1.402       .  A
C1812      C1818   1.401       .  A
C1812      C1813   1.412       .  A
C1813      C1815   1.401       .  A
C1813      C1814   1.405       .  A
C1814      H1821   1.084       .  S
C1815      H1822   1.084       .  S
C1815      C1816   1.399       .  A
C1816      H1823   1.078       .  S
C1816      C1817   1.411       .  A
C1817      C1818   1.409       .  A
C1818      H1824   1.084       .  S
C1825      C1826   1.406       .  A
C1825      C1830   1.401       .  A
C1826      H1835   1.083       .  S
C1826      C1827   1.397       .  A
C1827      H1836   1.084       .  S
C1827      C1828   1.402       .  A
C1828      C1834   1.405       .  A
C1828      C1829   1.415       .  A
C1829      C1831   1.398       .  A
C1829      C1830   1.401       .  A
C1830      H1837   1.083       .  S
C1831      H1838   1.084       .  S
C1831      C1832   1.394       .  A
C1832      H1839   1.083       .  S
C1832      C1833   1.408       .  A
C1833      C1834   1.406       .  A
C1834      H1840   1.084       .  S
C1841      C1842   1.407       .  A
C1841      C1846   1.407       .  A
C1842      H1851   1.082       .  S
C1842      C1843   1.403       .  A
C1843      H1852   1.083       .  S
C1843      C1844   1.405       .  A
C1844      C1850   1.411       .  A
C1844      C1845   1.413       .  A
C1845      C1847   1.399       .  A
C1845      C1846   1.402       .  A
C1846      H1853   1.084       .  S
C1847      H1854   1.084       .  S
C1847      C1848   1.394       .  A
C1848      H1855   1.083       .  S
C1848      C1849   1.409       .  A
C1849      C1850   1.410       .  A
C1850      H1856   1.084       .  S
C1857      C1858   1.405       .  A
C1857      C1862   1.406       .  A
C1858      H1867   1.083       .  S
C1858      C1859   1.397       .  A
C1859      H1868   1.084       .  S
C1859      C1860   1.402       .  A
C1860      C1866   1.404       .  A
C1860      C1861   1.413       .  A
C1861      C1863   1.402       .  A
C1861      C1862   1.404       .  A
C1862      H1869   1.084       .  S
C1863      H1870   1.084       .  S
C1863      C1864   1.398       .  A
C1864      H1871   1.083       .  S
C1864      C1865   1.407       .  A
C1865      C1866   1.408       .  A
C1866      H1872   1.084       .  S
C1873      C1874   1.410       .  A
C1873      C1878   1.410       .  A
C1874      H1883   1.083       .  S
C1874      C1875   1.395       .  A
C1875      H1884   1.084       .  S
C1875      C1876   1.399       .  A
C1876      C1882   1.403       .  A
C1876      C1877   1.413       .  A
C1877      C1879   1.402       .  A
C1877      C1878   1.404       .  A
C1878      H1885   1.078       .  S
C1879      H1886   1.084       .  S
C1879      C1880   1.397       .  A
C1880      H1887   1.083       .  S
C1880      C1881   1.405       .  A
C1881      C1882   1.406       .  A
C1882      H1888   1.084       .  S
C1889      C1890   1.405       .  A
C1889      C1894   1.408       .  A
C1890      H1899   1.083       .  S
C1890      C1891   1.398       .  A
C1891      H1900   1.084       .  S
C1891      C1892   1.402       .  A
C1892      C1898   1.401       .  A
C1892      C1893   1.414       .  A
C1893      C1895   1.402       .  A
C1893      C1894   1.398       .  A
C1894      H1901   1.084       .  S
C1895      H1902   1.084       .  S
C1895      C1896   1.395       .  A
C1896      H1903   1.083       .  S
C1896      C1897   1.401       .  A
C1897      C1898   1.401       .  A
C1898      H1904   1.085       .  S
C1905      C1906   1.405       .  A
C1905      C1910   1.405       .  A
C1906      H1915   1.083       .  S
C1906      C1907   1.396       .  A
C1907      H1916   1.084       .  S
C1907      C1908   1.402       .  A
C1908      C1914   1.400       .  A
C1908      C1909   1.411       .  A
C1909      C1911   1.400       .  A
C1909      C1910   1.402       .  A
C1910      H1917   1.084       .  S
C1911      H1918   1.084       .  S
C1911      C1912   1.397       .  A
C1912      H1919   1.077       .  S
C1912      C1913   1.410       .  A
C1913      C1914   1.410       .  A
C1914      H1920   1.085       .  S
C1921      C1922   1.405       .  A
C1921      C1926   1.405       .  A
C1922      H1931   1.083       .  S
C1922      C1923   1.404       .  A
C1923      H1932   1.083       .  S
C1923      C1924   1.406       .  A
C1924      C1930   1.411       .  A
C1924      C1925   1.413       .  A
C1925      C1927   1.399       .  A
C1925      C1926   1.400       .  A
C1926      H1933   1.085       .  S
C1927      H1934   1.084       .  S
C1927      C1928   1.393       .  A
C1928      H1935   1.083       .  S
C1928      C1929   1.407       .  A
C1929      C1930   1.410       .  A
C1930      H1936   1.084       .  S
C1937      C1938   1.404       .  A
C1937      C1942   1.406       .  A
C1938      H1947   1.083       .  S
C1938      C1939   1.407       .  A
C1939      H1948   1.083       .  S
C1939      C1940   1.408       .  A
C1940      C1946   1.412       .  A
C1940      C1941   1.412       .  A
C1941      C1943   1.398       .  A
C1941      C1942   1.396       .  A
C1942      H1949   1.084       .  S
C1943      H1950   1.084       .  S
C1943      C1944   1.390       .  A
C1944      H1951   1.083       .  S
C1944      C1945   1.406       .  A
C1945      C1946   1.412       .  A
C1946      H1952   1.084       .  S
C1953      C1954   1.410       .  A
C1953      C1958   1.413       .  A
C1954      H1963   1.080       .  S
C1954      C1955   1.396       .  A
C1955      H1964   1.084       .  S
C1955      C1956   1.400       .  A
C1956      C1962   1.402       .  A
C1956      C1957   1.411       .  A
C1957      C1959   1.404       .  A
C1957      C1958   1.405       .  A
C1958      H1965   1.083       .  S
C1959      H1966   1.084       .  S
C1959      C1960   1.400       .  A
C1960      H1967   1.083       .  S
C1960      C1961   1.406       .  A
C1961      C1962   1.407       .  A
C1962      H1968   1.084       .  S
C1969      C1970   1.408       .  A
C1969      C1974   1.407       .  A
C1970      H1979   1.083       .  S
C1970      C1971   1.398       .  A
C1971      H1980   1.084       .  S
C1971      C1972   1.401       .  A
C1972      C1978   1.406       .  A
C1972      C1973   1.414       .  A
C1973      C1975   1.402       .  A
C1973      C1974   1.406       .  A
C1974      H1981   1.084       .  S
C1975      H1982   1.084       .  S
C1975      C1976   1.398       .  A
C1976      H1983   1.077       .  S
C1976      C1977   1.402       .  A
C1977      C1978   1.407       .  A
C1978      H1984   1.084       .  S
C1985      C1986   1.403       .  A
C1985      C1990   1.402       .  A
C1986      H1995   1.083       .  S
C1986      C1987   1.404       .  A
C1987      H1996   1.083       .  S
C1987      C1988   1.407       .  A
C1988      C1994   1.412       .  A
C1988      C1989   1.414       .  A
C1989      C1991   1.398       .  A
C1989      C1990   1.403       .  A
C1990      H1997   1.085       .  S
C1991      H1998   1.084       .  S
C1991      C1992   1.394       .  A
C1992      H1999   1.083       .  S
C1992      C1993   1.408       .  A
C1993      C1994   1.411       .  A
C1994      H2000   1.084       .  S
C2001      C2002   1.407       .  A
C2001      C2006   1.408       .  A
C2002      H2011   1.083       .  S
C2002      C2003   1.393       .  A
C2003      H2012   1.084       .  S
C2003      C2004   1.398       .  A
C2004      C2010   1.402       .  A
C2004      C2005   1.413       .  A
C2005      C2007   1.406       .  A
C2005      C2006   1.411       .  A
C2006      H2013   1.078       .  S
C2007      H2014   1.083       .  S
C2007      C2008   1.404       .  A
C2008      H2015   1.083       .  S
C2008      C2009   1.407       .  A
C2009      C2010   1.405       .  A
C2010      H2016   1.084       .  S
C2017      C2018   1.408       .  A
C2017      C2022   1.405       .  A
C2018      H2027   1.083       .  S
C2018      C2019   1.398       .  A
C2019      H2028   1.084       .  S
C2019      C2020   1.402       .  A
C2020      C2026   1.405       .  A
C2020      C2021   1.415       .  A
C2021      C2023   1.400       .  A
C2021      C2022   1.401       .  A
C2022      H2029   1.084       .  S
C2023      H2030   1.084       .  S
C2023      C2024   1.394       .  A
C2024      H2031   1.083       .  S
C2024      C2025   1.404       .  A
C2025      C2026   1.404       .  A
C2026      H2032   1.084       .  S
C2033      C2034   1.405   1_556  A
C2033      C2038   1.408       .  A
C2034      H2043   1.083       .  S
C2034      C2035   1.404       .  A
C2035      H2044   1.083       .  S
C2035      C2036   1.407       .  A
C2036      C2042   1.410       .  A
C2036      C2037   1.412   1_554  A
C2037      C2039   1.401       .  A
C2037      C2038   1.402       .  A
C2038      H2045   1.084       .  S
C2039      H2046   1.084       .  S
C2039      C2040   1.397       .  A
C2040      H2047   1.083       .  S
C2040      C2041   1.407       .  A
C2041      C2042   1.413   1_556  A
C2042      H2048   1.084       .  S
C2049      C2050   1.405       .  A
C2049      C2054   1.404       .  A
C2050      H2059   1.083       .  S
C2050      C2051   1.408       .  A
C2051      H2060   1.083       .  S
C2051      C2052   1.409       .  A
C2052      C2058   1.415       .  A
C2052      C2053   1.414       .  A
C2053      C2055   1.397   1_554  A
C2053      C2054   1.397       .  A
C2054      H2061   1.085   1_554  S
C2055      H2062   1.084       .  S
C2055      C2056   1.389   1_556  A
C2056      H2063   1.084   1_554  S
C2056      C2057   1.404       .  A
C2057      C2058   1.410       .  A
C2058      H2064   1.084       .  S
C2065      C2066   1.411       .  A
C2065      C2070   1.416       .  A
C2066      H2075   1.082       .  S
C2066      C2067   1.400       .  A
C2067      H2076   1.084       .  S
C2067      C2068   1.402       .  A
C2068      C2074   1.408       .  A
C2068      C2069   1.411       .  A
C2069      C2071   1.404       .  A
C2069      C2070   1.407       .  A
C2070      H2077   1.080       .  S
C2071      H2078   1.084       .  S
C2071      C2072   1.400       .  A
C2072      H2079   1.083       .  S
C2072      C2073   1.406       .  A
C2073      C2074   1.410       .  A
C2074      H2080   1.084       .  S
C2081      C2082   1.408       .  A
C2081      C2086   1.404       .  A
C2082      H2091   1.082       .  S
C2082      C2083   1.405       .  A
C2083      H2092   1.083       .  S
C2083      C2084   1.406       .  A
C2084      C2090   1.412       .  A
C2084      C2085   1.412       .  A
C2085      C2087   1.400       .  A
C2085      C2086   1.400       .  A
C2086      H2093   1.076       .  S
C2087      H2094   1.084       .  S
C2087      C2088   1.393       .  A
C2088      H2095   1.083       .  S
C2088      C2089   1.405       .  A
C2089      C2090   1.411       .  A
C2090      H2096   1.084       .  S
C2097      C2098   1.409   1_545  A
C2097      C2102   1.408       .  A
C2098      H2107   1.083       .  S
C2098      C2099   1.392       .  A
C2099      H2108   1.084       .  S
C2099      C2100   1.397       .  A
C2100      C2106   1.399       .  A
C2100      C2101   1.414   1_565  A
C2101      C2103   1.404       .  A
C2101      C2102   1.408       .  A
C2102      H2109   1.084       .  S
C2103      H2110   1.083       .  S
C2103      C2104   1.401       .  A
C2104      H2111   1.083       .  S
C2104      C2105   1.404       .  A
C2105      C2106   1.402   1_545  A
C2106      H2112   1.085       .  S
C2113      C2114   1.406       .  A
C2113      C2118   1.404   1_545  A
C2114      H2123   1.076       .  S
C2114      C2115   1.405       .  A
C2115      H2124   1.083       .  S
C2115      C2116   1.405       .  A
C2116      C2122   1.411       .  A
C2116      C2117   1.414   1_545  A
C2117      C2119   1.397       .  A
C2117      C2118   1.396       .  A
C2118      H2125   1.084       .  S
C2119      H2126   1.084       .  S
C2119      C2120   1.389       .  A
C2120      H2127   1.084       .  S
C2120      C2121   1.404   1_565  A
C2121      C2122   1.408       .  A
C2122      H2128   1.084       .  S
C2129      C2130   1.410       .  A
C2129      C2134   1.408       .  A
C2130      H2139   1.082       .  S
C2130      C2131   1.402       .  A
C2131      H2140   1.083       .  S
C2131      C2132   1.403       .  A
C2132      C2138   1.413       .  A
C2132      C2133   1.413       .  A
C2133      C2135   1.401       .  A
C2133      C2134   1.407       .  A
C2134      H2141   1.080       .  S
C2135      H2142   1.084       .  S
C2135      C2136   1.397       .  A
C2136      H2143   1.083       .  S
C2136      C2137   1.407       .  A
C2137      C2138   1.409       .  A
C2138      H2144   1.084       .  S
C2145      C2146   1.405       .  A
C2145      C2150   1.407       .  A
C2146      H2155   1.080       .  S
C2146      C2147   1.402       .  A
C2147      H2156   1.083       .  S
C2147      C2148   1.404       .  A
C2148      C2154   1.409       .  A
C2148      C2149   1.414       .  A
C2149      C2151   1.400       .  A
C2149      C2150   1.401       .  A
C2150      H2157   1.084       .  S
C2151      H2158   1.084       .  S
C2151      C2152   1.393       .  A
C2152      H2159   1.083       .  S
C2152      C2153   1.406       .  A
C2153      C2154   1.407       .  A
C2154      H2160   1.084       .  S
C2161      C2162   1.403       .  A
C2161      C2166   1.401       .  A
C2162      H2171   1.083       .  S
C2162      C2163   1.397       .  A
C2163      H2172   1.084       .  S
C2163      C2164   1.402       .  A
C2164      C2170   1.404       .  A
C2164      C2165   1.416       .  A
C2165      C2167   1.400       .  A
C2165      C2166   1.403       .  A
C2166      H2173   1.085       .  S
C2167      H2174   1.084       .  S
C2167      C2168   1.396       .  A
C2168      H2175   1.083       .  S
C2168      C2169   1.407       .  A
C2169      C2170   1.405       .  A
C2170      H2176   1.084       .  S
C2177      C2178   1.409       .  A
C2177      C2182   1.409       .  A
C2178      H2187   1.083       .  S
C2178      C2179   1.395       .  A
C2179      H2188   1.084       .  S
C2179      C2180   1.399       .  A
C2180      C2186   1.405       .  A
C2180      C2181   1.415       .  A
C2181      C2183   1.403   1_556  A
C2181      C2182   1.409       .  A
C2182      H2189   1.084       .  S
C2183      H2190   1.083       .  S
C2183      C2184   1.400       .  A
C2184      H2191   1.083       .  S
C2184      C2185   1.405   1_554  A
C2185      C2186   1.403       .  A
C2186      H2192   1.084       .  S
C2193      C2194   1.409       .  A
C2193      C2198   1.409       .  A
C2194      H2203   1.079       .  S
C2194      C2195   1.404   1_556  A
C2195      H2204   1.083       .  S
C2195      C2196   1.405       .  A
C2196      C2202   1.408       .  A
C2196      C2197   1.411   1_554  A
C2197      C2199   1.400   1_556  A
C2197      C2198   1.396       .  A
C2198      H2205   1.085       .  S
C2199      H2206   1.084   1_554  S
C2199      C2200   1.393       .  A
C2200      H2207   1.083       .  S
C2200      C2201   1.403       .  A
C2201      C2202   1.409       .  A
C2202      H2208   1.084       .  S
C2209      C2210   1.406       .  A
C2209      C2214   1.412       .  A
C2210      H2219   1.083       .  S
C2210      C2211   1.390       .  A
C2211      H2220   1.084       .  S
C2211      C2212   1.397       .  A
C2212      C2218   1.398       .  A
C2212      C2213   1.414       .  A
C2213      C2215   1.409       .  A
C2213      C2214   1.414       .  A
C2214      H2221   1.084       .  S
C2215      H2222   1.083       .  S
C2215      C2216   1.407       .  A
C2216      H2223   1.083       .  S
C2216      C2217   1.404       .  A
C2217      C2218   1.404       .  A
C2218      H2224   1.085       .  S
C2225      C2226   1.403       .  A
C2225      C2230   1.407       .  A
C2226      H2235   1.084       .  S
C2226      C2227   1.392       .  A
C2227      H2236   1.084       .  S
C2227      C2228   1.400       .  A
C2228      C2234   1.396       .  A
C2228      C2229   1.413       .  A
C2229      C2231   1.406       .  A
C2229      C2230   1.408       .  A
C2230      H2237   1.084       .  S
C2231      H2238   1.083       .  S
C2231      C2232   1.403       .  A
C2232      H2239   1.083       .  S
C2232      C2233   1.403       .  A
C2233      C2234   1.405       .  A
C2234      H2240   1.085       .  S
C2241      C2242   1.406       .  A
C2241      C2246   1.404       .  A
C2242      H2251   1.083       .  S
C2242      C2243   1.402       .  A
C2243      H2252   1.083       .  S
C2243      C2244   1.404       .  A
C2244      C2250   1.408       .  A
C2244      C2245   1.412       .  A
C2245      C2247   1.396       .  A
C2245      C2246   1.401       .  A
C2246      H2253   1.085       .  S
C2247      H2254   1.084       .  S
C2247      C2248   1.393       .  A
C2248      H2255   1.075       .  S
C2248      C2249   1.414       .  A
C2249      C2250   1.413       .  A
C2250      H2256   1.084       .  S
C2257      C2258   1.403       .  A
C2257      C2262   1.399       .  A
C2258      H2267   1.083       .  S
C2258      C2259   1.401       .  A
C2259      H2268   1.083       .  S
C2259      C2260   1.405       .  A
C2260      C2266   1.408       .  A
C2260      C2261   1.415       .  A
C2261      C2263   1.397       .  A
C2261      C2262   1.397       .  A
C2262      H2269   1.085       .  S
C2263      H2270   1.084       .  S
C2263      C2264   1.390       .  A
C2264      H2271   1.083       .  S
C2264      C2265   1.407       .  A
C2265      C2266   1.407       .  A
C2266      H2272   1.084       .  S
C2273      C2274   1.409       .  A
C2273      C2278   1.403       .  A
C2274      H2283   1.083       .  S
C2274      C2275   1.404       .  A
C2275      H2284   1.083       .  S
C2275      C2276   1.404       .  A
C2276      C2282   1.415       .  A
C2276      C2277   1.415       .  A
C2277      C2279   1.394       .  A
C2277      C2278   1.402       .  A
C2278      H2285   1.084       .  S
C2279      H2286   1.084       .  S
C2279      C2280   1.390       .  A
C2280      H2287   1.082       .  S
C2280      C2281   1.412       .  A
C2281      C2282   1.408       .  A
C2282      H2288   1.083       .  S
C2289      C2290   1.407       .  A
C2289      C2294   1.411       .  A
C2290      H2299   1.082       .  S
C2290      C2291   1.410       .  A
C2291      H2300   1.083       .  S
C2291      C2292   1.410       .  A
C2292      C2298   1.415       .  A
C2292      C2293   1.410       .  A
C2293      C2295   1.400       .  A
C2293      C2294   1.397       .  A
C2294      H2301   1.082       .  S
C2295      H2302   1.084       .  S
C2295      C2296   1.391       .  A
C2296      H2303   1.083       .  S
C2296      C2297   1.404       .  A
C2297      C2298   1.416       .  A
C2298      H2304   1.084       .  S
C2305      C2306   1.407       .  A
C2305      C2310   1.410       .  A
C2306      H2315   1.083       .  S
C2306      C2307   1.396       .  A
C2307      H2316   1.084       .  S
C2307      C2308   1.400       .  A
C2308      C2314   1.405       .  A
C2308      C2309   1.415       .  A
C2309      C2311   1.406       .  A
C2309      C2310   1.413       .  A
C2310      H2317   1.084       .  S
C2311      H2318   1.083       .  S
C2311      C2312   1.404       .  A
C2312      H2319   1.083       .  S
C2312      C2313   1.403       .  A
C2313      C2314   1.405       .  A
C2314      H2320   1.085       .  S
C2321      C2322   1.408       .  A
C2321      C2326   1.409       .  A
C2322      H2331   1.083       .  S
C2322      C2323   1.395       .  A
C2323      H2332   1.084       .  S
C2323      C2324   1.400       .  A
C2324      C2330   1.403       .  A
C2324      C2325   1.413       .  A
C2325      C2327   1.403       .  A
C2325      C2326   1.408       .  A
C2326      H2333   1.084       .  S
C2327      H2334   1.084       .  S
C2327      C2328   1.401       .  A
C2328      H2335   1.082       .  S
C2328      C2329   1.406       .  A
C2329      C2330   1.408       .  A
C2330      H2336   1.083       .  S
C2337      C2338   1.405       .  A
C2337      C2342   1.406       .  A
C2338      H2347   1.083       .  S
C2338      C2339   1.398       .  A
C2339      H2348   1.084       .  S
C2339      C2340   1.402       .  A
C2340      C2346   1.408       .  A
C2340      C2341   1.415       .  A
C2341      C2343   1.400       .  A
C2341      C2342   1.407       .  A
C2342      H2349   1.084       .  S
C2343      H2350   1.084       .  S
C2343      C2344   1.397       .  A
C2344      H2351   1.083       .  S
C2344      C2345   1.410       .  A
C2345      C2346   1.407       .  A
C2346      H2352   1.084       .  S
C2353      C2354   1.410       .  A
C2353      C2358   1.412       .  A
C2354      H2363   1.083       .  S
C2354      C2355   1.391       .  A
C2355      H2364   1.084       .  S
C2355      C2356   1.396       .  A
C2356      C2362   1.400       .  A
C2356      C2357   1.414       .  A
C2357      C2359   1.405       .  A
C2357      C2358   1.410       .  A
C2358      H2365   1.079       .  S
C2359      H2366   1.083       .  S
C2359      C2360   1.402       .  A
C2360      H2367   1.083       .  S
C2360      C2361   1.404       .  A
C2361      C2362   1.402       .  A
C2362      H2368   1.085       .  S
C2369      C2370   1.403       .  A
C2369      C2374   1.407       .  A
C2370      H2379   1.083       .  S
C2370      C2371   1.406       .  A
C2371      H2380   1.083       .  S
C2371      C2372   1.408       .  A
C2372      C2378   1.411       .  A
C2372      C2373   1.412       .  A
C2373      C2375   1.400       .  A
C2373      C2374   1.400       .  A
C2374      H2381   1.084       .  S
C2375      H2382   1.084       .  S
C2375      C2376   1.394       .  A
C2376      H2383   1.083       .  S
C2376      C2377   1.405       .  A
C2377      C2378   1.412       .  A
C2378      H2384   1.084       .  S
C2385      C2386   1.406       .  A
C2385      C2390   1.409       .  A
C2386      H2395   1.083       .  S
C2386      C2387   1.397       .  A
C2387      H2396   1.084       .  S
C2387      C2388   1.402       .  A
C2388      C2394   1.402       .  A
C2388      C2389   1.412       .  A
C2389      C2391   1.403       .  A
C2389      C2390   1.404       .  A
C2390      H2397   1.084       .  S
C2391      H2398   1.084       .  S
C2391      C2392   1.399       .  A
C2392      H2399   1.083       .  S
C2392      C2393   1.406       .  A
C2393      C2394   1.403       .  A
C2394      H2400   1.078       .  S
C2401      C2402   1.405       .  A
C2401      C2406   1.403       .  A
C2402      H2411   1.083       .  S
C2402      C2403   1.403       .  A
C2403      H2412   1.083       .  S
C2403      C2404   1.405       .  A
C2404      C2410   1.410       .  A
C2404      C2405   1.414       .  A
C2405      C2407   1.397       .  A
C2405      C2406   1.400       .  A
C2406      H2413   1.084       .  S
C2407      H2414   1.084       .  S
C2407      C2408   1.392       .  A
C2408      H2415   1.083       .  S
C2408      C2409   1.408       .  A
C2409      C2410   1.410       .  A
C2410      H2416   1.084       .  S
C2417      C2418   1.408       .  A
C2417      C2422   1.408       .  A
C2418      H2427   1.083       .  S
C2418      C2419   1.393       .  A
C2419      H2428   1.084       .  S
C2419      C2420   1.399       .  A
C2420      C2426   1.401       .  A
C2420      C2421   1.412       .  A
C2421      C2423   1.402       .  A
C2421      C2422   1.408       .  A
C2422      H2429   1.084       .  S
C2423      H2430   1.083       .  S
C2423      C2424   1.400       .  A
C2424      H2431   1.081       .  S
C2424      C2425   1.410       .  A
C2425      C2426   1.409       .  A
C2426      H2432   1.083       .  S
C2433      C2434   1.406       .  A
C2433      C2438   1.410       .  A
C2434      H2443   1.083       .  S
C2434      C2435   1.394       .  A
C2435      H2444   1.084       .  S
C2435      C2436   1.400       .  A
C2436      C2442   1.400       .  A
C2436      C2437   1.411       .  A
C2437      C2439   1.402       .  A
C2437      C2438   1.406       .  A
C2438      H2445   1.084       .  S
C2439      H2446   1.084       .  S
C2439      C2440   1.400       .  A
C2440      H2447   1.082       .  S
C2440      C2441   1.410       .  A
C2441      C2442   1.410       .  A
C2442      H2448   1.081       .  S
C2449      C2450   1.408   1_565  A
C2449      C2454   1.413       .  A
C2450      H2459   1.083       .  S
C2450      C2451   1.388       .  A
C2451      H2460   1.084       .  S
C2451      C2452   1.395       .  A
C2452      C2458   1.399       .  A
C2452      C2453   1.414   1_545  A
C2453      C2455   1.407       .  A
C2453      C2454   1.419       .  A
C2454      H2461   1.084       .  S
C2455      H2462   1.083       .  S
C2455      C2456   1.409       .  A
C2456      H2463   1.078       .  S
C2456      C2457   1.408       .  A
C2457      C2458   1.405   1_565  A
C2458      H2464   1.084       .  S
C2465      C2466   1.407       .  A
C2465      C2470   1.410   1_545  A
C2466      H2475   1.083       .  S
C2466      C2467   1.396       .  A
C2467      H2476   1.084       .  S
C2467      C2468   1.401       .  A
C2468      C2474   1.402       .  A
C2468      C2469   1.412   1_545  A
C2469      C2471   1.405       .  A
C2469      C2470   1.407       .  A
C2470      H2477   1.084       .  S
C2471      H2478   1.083       .  S
C2471      C2472   1.402       .  A
C2472      H2479   1.083       .  S
C2472      C2473   1.403       .  A
C2473      C2474   1.407   1_565  A
C2474      H2480   1.085       .  S
C2481      C2482   1.410       .  A
C2481      C2486   1.410       .  A
C2482      H2491   1.078       .  S
C2482      C2483   1.402       .  A
C2483      H2492   1.084       .  S
C2483      C2484   1.403       .  A
C2484      C2490   1.407       .  A
C2484      C2485   1.411       .  A
C2485      C2487   1.401       .  A
C2485      C2486   1.400       .  A
C2486      H2493   1.085       .  S
C2487      H2494   1.084       .  S
C2487      C2488   1.395       .  A
C2488      H2495   1.083       .  S
C2488      C2489   1.404       .  A
C2489      C2490   1.408       .  A
C2490      H2496   1.084       .  S
C2497      C2498   1.405       .  A
C2497      C2502   1.404       .  A
C2498      H2507   1.083       .  S
C2498      C2499   1.398       .  A
C2499      H2508   1.084       .  S
C2499      C2500   1.402       .  A
C2500      C2506   1.408       .  A
C2500      C2501   1.415       .  A
C2501      C2503   1.402       .  A
C2501      C2502   1.410       .  A
C2502      H2509   1.085       .  S
C2503      H2510   1.084       .  S
C2503      C2504   1.400       .  A
C2504      H2511   1.083       .  S
C2504      C2505   1.409       .  A
C2505      C2506   1.408       .  A
C2506      H2512   1.084       .  S
C2513      C2514   1.407       .  A
C2513      C2518   1.406       .  A
C2514      H2523   1.083       .  S
C2514      C2515   1.391       .  A
C2515      H2524   1.084       .  S
C2515      C2516   1.399       .  A
C2516      C2522   1.399       .  A
C2516      C2517   1.413       .  A
C2517      C2519   1.400       .  A
C2517      C2518   1.406       .  A
C2518      H2525   1.084       .  S
C2519      H2526   1.084       .  S
C2519      C2520   1.398       .  A
C2520      H2527   1.083       .  S
C2520      C2521   1.410       .  A
C2521      C2522   1.409       .  A
C2522      H2528   1.077       .  S
C2529      C2530   1.403       .  A
C2529      C2534   1.406       .  A
C2530      H2539   1.083       .  S
C2530      C2531   1.399       .  A
C2531      H2540   1.084       .  S
C2531      C2532   1.404       .  A
C2532      C2538   1.405       .  A
C2532      C2533   1.413       .  A
C2533      C2535   1.403       .  A
C2533      C2534   1.405       .  A
C2534      H2541   1.084       .  S
C2535      H2542   1.084       .  S
C2535      C2536   1.399       .  A
C2536      H2543   1.083       .  S
C2536      C2537   1.406       .  A
C2537      C2538   1.410       .  A
C2538      H2544   1.084       .  S
C2545      C2546   1.406       .  A
C2545      C2550   1.410       .  A
C2546      H2555   1.083       .  S
C2546      C2547   1.397       .  A
C2547      H2556   1.084       .  S
C2547      C2548   1.401       .  A
C2548      C2554   1.403       .  A
C2548      C2549   1.413       .  A
C2549      C2551   1.405       .  A
C2549      C2550   1.406       .  A
C2550      H2557   1.084       .  S
C2551      H2558   1.084       .  S
C2551      C2552   1.400       .  A
C2552      H2559   1.083       .  S
C2552      C2553   1.404       .  A
C2553      C2554   1.401       .  A
C2554      H2560   1.079       .  S
C2561      C2562   1.408       .  A
C2561      C2566   1.408       .  A
C2562      H2571   1.083       .  S
C2562      C2563   1.397       .  A
C2563      H2572   1.084       .  S
C2563      C2564   1.400       .  A
C2564      C2570   1.405       .  A
C2564      C2565   1.415       .  A
C2565      C2567   1.403       .  A
C2565      C2566   1.408       .  A
C2566      H2573   1.084       .  S
C2567      H2574   1.083       .  S
C2567      C2568   1.399       .  A
C2568      H2575   1.083       .  S
C2568      C2569   1.403       .  A
C2569      C2570   1.402       .  A
C2570      H2576   1.085       .  S
C2577      C2578   1.406       .  A
C2577      C2582   1.410       .  A
C2578      H2587   1.083       .  S
C2578      C2579   1.393       .  A
C2579      H2588   1.084       .  S
C2579      C2580   1.399       .  A
C2580      C2586   1.399       .  A
C2580      C2581   1.411       .  A
C2581      C2583   1.403       .  A
C2581      C2582   1.408       .  A
C2582      H2589   1.084       .  S
C2583      H2590   1.084       .  S
C2583      C2584   1.403       .  A
C2584      H2591   1.073       .  S
C2584      C2585   1.406       .  A
C2585      C2586   1.410       .  A
C2586      H2592   1.082       .  S
