geometry optimzed in LAMMPS
_audit_creation_date              2020-11-30 
_audit_creation_method            'lammps2cif' 
_symmetry_space_group_name_H-M    'P1' 
_symmetry_Int_Tables_number       1 
_symmetry_cell_setting            triclinic 
loop_ 
_symmetry_equiv_pos_as_xyz 
  x,y,z 
_cell_length_a                    42.83878758 
_cell_length_b                    42.9242019042844 
_cell_length_c                    82.43738175911778 
_cell_angle_alpha                 89.25760856931146 
_cell_angle_beta                  89.75838200785468 
_cell_angle_gamma                 120.24156932820306 
loop_ 
_atom_site_label 
_atom_site_type_symbol 
_atom_site_fract_x 
_atom_site_fract_y 
_atom_site_fract_z 
_atom_site_charge 
C1          C  0.65503117  0.31908121  0.29590925     0.86300
C2          C  0.69278553  0.33705113  0.28780554    -0.54000
C3          C  0.69282199  0.33551418  0.27124918     0.04400
C4          C  0.65454418  0.31539589  0.26415707     0.20100
C5          C  0.63486618  0.33583186  0.28737216    -0.54700
C6          C  0.63545365  0.33481829  0.27083191     0.09300
C7          C  0.63601054  0.28006210  0.28934127    -0.54200
C8          C  0.63580568  0.27839144  0.27282170     0.09900
H9          H  0.71758540  0.34966413  0.29470925     0.14400
H10         H  0.65361378  0.31360910  0.25074196     0.00100
H11         H  0.62070398  0.34701201  0.29380387     0.14700
H12         H  0.62314877  0.25543792  0.29653820     0.14500
C13         C  0.67012091  0.33837914  0.36780822     0.86300
C14         C  0.69045956  0.37725139  0.37473761    -0.54000
C15         C  0.69170595  0.37821891  0.39136882     0.09200
C16         C  0.67207829  0.34070086  0.39955390     0.20100
C17         C  0.68969833  0.32032497  0.37571094    -0.54700
C18         C  0.68953812  0.32034204  0.39224732     0.09300
C19         C  0.63282312  0.32118842  0.37619872    -0.54200
C20         C  0.63377352  0.32235882  0.39270524     0.09900
H21         H  0.70329326  0.40201672  0.36761942     0.14400
H22         H  0.67278491  0.34146955  0.41299675     0.00100
H23         H  0.70294216  0.30875403  0.36884743     0.14700
H24         H  0.60764870  0.30959560  0.36957776     0.14500
N25         N  0.25055957  0.87921964  0.52186026    -0.27500
N26         N  0.22308912  0.87516939  0.51304500    -0.35400
C27         C  0.23153936  0.90709891  0.50618046     0.00800
C28         C  0.26585472  0.93279963  0.51105584     0.06800
C29         C  0.27725079  0.91393419  0.52080225    -0.06300
H30         H  0.21413811  0.91078922  0.49791203     0.07500
H31         H  0.30292574  0.92478419  0.52685880     0.08700
Cu32       Cu  0.17483882  0.82661706  0.51078080     0.44200
Cu33       Cu  0.24992379  0.83711770  0.53501095     0.42000
Cu34       Cu  0.16758661  0.74921059  0.53175395     0.43900
N35         N  0.12842530  0.77597620  0.51064538    -0.34900
N36         N  0.12558232  0.74755346  0.51842304    -0.29200
C37         C  0.09173646  0.71957927  0.51677768    -0.05300
C38         C  0.07220244  0.73072569  0.50732975     0.07000
C39         C  0.09655647  0.76679894  0.50378400     0.00800
H40         H  0.08190424  0.69386165  0.52286775     0.08400
H41         H  0.09125967  0.78533599  0.49698226     0.07500
N42         N  0.21277613  0.75803757  0.54482604    -0.36400
N43         N  0.24223910  0.78997991  0.54629895    -0.28500
C44         C  0.26559521  0.78645122  0.55593834    -0.03800
C45         C  0.25040163  0.75051906  0.56066395     0.04800
C46         C  0.21681046  0.73337208  0.55338155     0.02900
H47         H  0.29190250  0.80846209  0.55917614     0.08000
H48         H  0.19630416  0.70519829  0.55453094     0.06900
N49         N  0.86696049  0.61912595  0.47971804    -0.27500
N50         N  0.86082785  0.63910418  0.48986536    -0.35400
C51         C  0.89194472  0.66200813  0.49725284     0.00800
C52         C  0.91912806  0.65630603  0.49144488     0.06800
C53         C  0.90202922  0.62862748  0.48046833    -0.06300
H54         H  0.89452155  0.68151322  0.50610923     0.07500
H55         H  0.91447242  0.61707226  0.47310332     0.08700
Cu56       Cu  0.81085983  0.63598561  0.49213640     0.44200
Cu57       Cu  0.82811796  0.58187386  0.46422225     0.42000
Cu58       Cu  0.74227418  0.57906806  0.46310070     0.43900
N59         N  0.76092068  0.63284405  0.48995359    -0.34900
N60         N  0.73650061  0.61311703  0.47907491    -0.29200
C61         C  0.70907601  0.61991626  0.47984358    -0.05300
C62         C  0.71633740  0.64478167  0.49190127     0.07000
C63         C  0.74945292  0.65235186  0.49802520     0.00800
H64         H  0.68585310  0.60810743  0.47200151     0.08400
H65         H  0.76497769  0.67199833  0.50711322     0.07500
N66         N  0.75459095  0.54710443  0.44865894    -0.36400
N67         N  0.78586837  0.54800072  0.44913085    -0.28500
C68         C  0.78476897  0.52323636  0.43892039    -0.03800
C69         C  0.75119333  0.50580200  0.43155373     0.04800
C70         C  0.73282065  0.52175778  0.43813756     0.02900
H71         H  0.80673484  0.51799512  0.43716482     0.08000
H72         H  0.70509846  0.51451521  0.43602258     0.06900
N73         N  0.38379508  0.13476490  0.47823235    -0.27500
N74         N  0.36441387  0.14148956  0.48860023    -0.35400
C75         C  0.34249559  0.11138540  0.49718237     0.00800
C76         C  0.34827633  0.08410790  0.49209696     0.06800
C77         C  0.37464037  0.09992275  0.47999820    -0.06300
H78         H  0.32349560  0.10951163  0.50637397     0.07500
H79         H  0.38560528  0.08688716  0.47267216     0.08700
Cu80       Cu  0.36689506  0.19045750  0.49035847     0.44200
Cu81       Cu  0.42134285  0.17384554  0.46221685     0.42000
Cu82       Cu  0.43080330  0.26364751  0.46556644     0.43900
N83         N  0.37067438  0.24017546  0.48981711    -0.34900
N84         N  0.39419325  0.26752243  0.48066842    -0.29200
C85         C  0.38807525  0.29517888  0.48223401    -0.05300
C86         C  0.35936271  0.28461080  0.49299688     0.07000
C87         C  0.34895691  0.24949794  0.49744222     0.00800
H88         H  0.40201602  0.32006080  0.47524858     0.08400
H89         H  0.32639531  0.23155610  0.50522269     0.07500
N90         N  0.46318824  0.25216326  0.45103856    -0.36400
N91         N  0.45945631  0.21982187  0.44946089    -0.28500
C92         C  0.48510937  0.22243113  0.43911919    -0.03800
C93         C  0.50597519  0.25810049  0.43395499     0.04800
C94         C  0.49131933  0.27609341  0.44186200     0.02900
H95         H  0.48891513  0.20014885  0.43602132     0.08000
H96         H  0.50038609  0.30458392  0.44101151     0.06900
N97         N  0.26181166  0.39070887  0.52110332    -0.27500
N98         N  0.23592217  0.36971590  0.51107891    -0.35400
C99         C  0.24512091  0.34765892  0.50377647     0.00800
C100        C  0.27832453  0.35468759  0.50959137     0.06800
C101        C  0.28821983  0.38247405  0.52044820    -0.06300
H102        H  0.22866870  0.32806021  0.49485559     0.07500
H103        H  0.31242447  0.39520292  0.52766117     0.08700
Cu104      Cu  0.18814333  0.37009393  0.50829607     0.44200
Cu105      Cu  0.25911256  0.42849322  0.53561383     0.42000
Cu106      Cu  0.17411244  0.42906364  0.53386143     0.43900
N107        N  0.14071788  0.37177613  0.50863535    -0.34900
N108        N  0.13517607  0.39324263  0.51804590    -0.29200
C109        C  0.10112615  0.38643433  0.51595676    -0.05300
C110        C  0.08442790  0.35927242  0.50468049     0.07000
C111        C  0.11048171  0.35070782  0.50037168     0.00800
H112        H  0.08902076  0.39920343  0.52269458     0.08400
H113        H  0.10749919  0.33010256  0.49206254     0.07500
N114        N  0.21764869  0.46315846  0.54821868    -0.36400
N115        N  0.24848173  0.46314499  0.54877743    -0.28500
C116        C  0.27120619  0.48944879  0.55866261    -0.03800
C117        C  0.25392431  0.50692065  0.56473532     0.04800
C118        C  0.21999214  0.48944732  0.55774544     0.02900
H119        H  0.29849143  0.49557259  0.56111540     0.08000
H120        H  0.19890570  0.49612677  0.55890072     0.06900
N121        N  0.88068275  0.26416524  0.47449723    -0.27500
N122        N  0.87735865  0.23601968  0.48271693    -0.35400
C123        C  0.90890840  0.24497034  0.48975526     0.00800
C124        C  0.93374904  0.28052692  0.48572813     0.06800
C125        C  0.91468725  0.29200735  0.47616634    -0.06300
H126        H  0.91325406  0.22671199  0.49727909     0.07500
H127        H  0.92506712  0.31827164  0.47044759     0.08700
Cu128      Cu  0.83059363  0.18606534  0.48369454     0.44200
Cu129      Cu  0.83831908  0.26114193  0.46095654     0.42000
Cu130      Cu  0.75350924  0.17252511  0.46103606     0.43900
N131        N  0.78257794  0.13723940  0.48321206    -0.34900
N132        N  0.75419561  0.13174995  0.47475347    -0.29200
C133        C  0.72784940  0.09710296  0.47684045    -0.05300
C134        C  0.74014935  0.07996033  0.48728415     0.07000
C135        C  0.77508357  0.10648375  0.49096490     0.00800
H136        H  0.70202829  0.08533366  0.47088767     0.08400
H137        H  0.79378677  0.10381507  0.49882433     0.07500
N138        N  0.76134454  0.21844100  0.44847002    -0.36400
N139        N  0.79192774  0.24982920  0.44823288    -0.28500
C140        C  0.78805095  0.27306856  0.43854265    -0.03800
C141        C  0.75344793  0.25566307  0.43231024     0.04800
C142        C  0.73719146  0.22115618  0.43904112     0.02900
H143        H  0.80884221  0.30086806  0.43647066     0.08000
H144        H  0.70992985  0.19938497  0.43704770     0.06900
N145        N  0.61438145  0.74513074  0.52124498    -0.27500
N146        N  0.63608300  0.77050390  0.51077295    -0.35400
C147        C  0.65423957  0.75827685  0.50207616     0.00800
C148        C  0.64334397  0.72342242  0.50729288     0.06800
C149        C  0.61827666  0.71613160  0.51956227    -0.06300
H150        H  0.67556388  0.77449434  0.49341825     0.07500
H151        H  0.60488651  0.69202390  0.52712211     0.08700
Cu152      Cu  0.64320175  0.82203867  0.51044461     0.44200
Cu153      Cu  0.58282729  0.75272358  0.53808560     0.42000
Cu154      Cu  0.59287018  0.84236314  0.54008736     0.43900
N155        N  0.64993921  0.87298459  0.51349263    -0.34900
N156        N  0.63189842  0.88068321  0.52423892    -0.29200
C157        C  0.64284847  0.91606093  0.52287497    -0.05300
C158        C  0.66932844  0.93136920  0.51086086     0.07000
C159        C  0.67284141  0.90314342  0.50510262     0.00800
H160        H  0.63234268  0.92968501  0.53009363     0.08400
H161        H  0.68995823  0.90405571  0.49521565     0.07500
N162        N  0.55525284  0.79777479  0.55382853    -0.36400
N163        N  0.55220507  0.76558405  0.55314912    -0.28500
C164        C  0.52464968  0.74239109  0.56280595    -0.03800
C165        C  0.50938632  0.76063046  0.56999037     0.04800
C166        C  0.52943621  0.79571503  0.56392990     0.02900
H167        H  0.51523866  0.71384938  0.56379780     0.08000
H168        H  0.52502108  0.81791515  0.56636865     0.06900
N169        N  0.58411398  0.52661293  0.18651478    -0.27500
N170        N  0.55869069  0.52389382  0.17661787    -0.35400
C171        C  0.57022095  0.55607151  0.16924793     0.00800
C172        C  0.60463927  0.58022607  0.17465000     0.06800
C173        C  0.61245439  0.56054995  0.18569278    -0.06300
H174        H  0.55426044  0.56183374  0.16091394     0.07500
H175        H  0.63595597  0.57049294  0.19329789     0.08700
Cu176      Cu  0.50823652  0.47721871  0.17452824     0.44200
Cu177      Cu  0.57778621  0.48450961  0.20145539     0.42000
Cu178      Cu  0.49071755  0.40159385  0.20103965     0.43900
N179        N  0.45931657  0.42830556  0.17524038    -0.34900
N180        N  0.45289505  0.40107107  0.18507350    -0.29200
C181        C  0.41858759  0.37428393  0.18313932    -0.05300
C182        C  0.40229386  0.38509430  0.17160369     0.07000
C183        C  0.42920642  0.41940734  0.16675893     0.00800
H184        H  0.40646693  0.34884796  0.18974267     0.08400
H185        H  0.42669097  0.43715481  0.15810265     0.07500
N186        N  0.53410255  0.40842668  0.21498627    -0.36400
N187        N  0.56572226  0.43862615  0.21499224    -0.28500
C188        C  0.58843219  0.43404276  0.22457733    -0.03800
C189        C  0.57042449  0.39926397  0.23104774     0.04800
C190        C  0.53594372  0.38380857  0.22461147     0.02900
H191        H  0.61624445  0.45457268  0.22653791     0.08000
H192        H  0.51413610  0.35629875  0.22623152     0.06900
N193        N  0.93993571  0.39594859  0.18686758    -0.27500
N194        N  0.96026626  0.42143583  0.17613585    -0.35400
C195        C  0.98171137  0.41188674  0.16835830     0.00800
C196        C  0.97508004  0.37897463  0.17462914     0.06800
C197        C  0.94804579  0.36947501  0.18620969    -0.06300
H198        H  0.00134944  0.42829978  0.15910701     0.07500
H199        H  0.93630803  0.34585275  0.19409818     0.08700
Cu200      Cu  0.96203678  0.47042893  0.17396984     0.44200
Cu201      Cu  0.90420231  0.40003182  0.20267165     0.42000
Cu202      Cu  0.91013959  0.48776266  0.20333799     0.43900
N203        N  0.96574622  0.52019736  0.17624460    -0.34900
N204        N  0.94715633  0.52685830  0.18711297    -0.29200
C205        C  0.95647408  0.56180797  0.18573646    -0.05300
C206        C  0.98242417  0.57792947  0.17356268     0.07000
C207        C  0.98747809  0.55066188  0.16775285     0.00800
H208        H  0.94566045  0.57473506  0.19323820     0.08400
H209        H  0.00545734  0.55265409  0.15803021     0.07500
N210        N  0.87267229  0.44293965  0.21700650    -0.36400
N211        N  0.87057480  0.41114105  0.21671026    -0.28500
C212        C  0.84242489  0.38764731  0.22604811    -0.03800
C213        C  0.82594460  0.40535522  0.23268646     0.04800
C214        C  0.84581424  0.44038881  0.22653679     0.02900
H215        H  0.83404579  0.35942596  0.22762241     0.08000
H216        H  0.84015335  0.46202318  0.22803890     0.06900
N217        N  0.06771978  0.26811593  0.14614052    -0.27500
N218        N  0.09462562  0.29072300  0.15536012    -0.35400
C219        C  0.08460611  0.31168902  0.16315438     0.00800
C220        C  0.04968186  0.30180103  0.15868815     0.06800
C221        C  0.04005740  0.27431496  0.14772344    -0.06300
H222        H  0.10193347  0.33339402  0.17109393     0.07500
H223        H  0.01574893  0.26113099  0.14063018     0.08700
Cu224      Cu  0.14530073  0.29515895  0.15547332     0.44200
Cu225      Cu  0.07022159  0.23110616  0.13106914     0.42000
Cu226      Cu  0.16000105  0.24742958  0.12323115     0.43900
N227        N  0.19499566  0.29925188  0.15066269    -0.34900
N228        N  0.20067466  0.28312270  0.13838330    -0.29200
C229        C  0.23567390  0.29215106  0.13813204    -0.05300
C230        C  0.25292295  0.31512936  0.15085366     0.07000
C231        C  0.22619956  0.31871784  0.15863130     0.00800
H232        H  0.24735900  0.28187532  0.12958327     0.08400
H233        H  0.22934841  0.33470538  0.16919407     0.07500
N234        N  0.11396631  0.20579151  0.11284983    -0.36400
N235        N  0.08089387  0.19868166  0.11634257    -0.28500
C236        C  0.05708925  0.16843220  0.10875572    -0.03800
C237        C  0.07599496  0.15571691  0.09993404     0.04800
C238        C  0.11212725  0.18057914  0.10276143     0.02900
H239        H  0.02808647  0.15647759  0.10974587     0.08000
H240        H  0.13566315  0.18087980  0.09781824     0.06900
N241        N  0.57649435  0.02546058  0.19378085    -0.27500
N242        N  0.55157091  0.00607825  0.18307165    -0.35400
C243        C  0.56253360  0.98686594  0.17449237     0.00800
C244        C  0.59593171  0.99421944  0.18014373     0.06800
C245        C  0.60399960  0.01899550  0.19235108    -0.06300
H246        H  0.54697988  0.96840789  0.16501722     0.07500
H247        H  0.62832763  0.03204586  0.19946099     0.08700
Cu248      Cu  0.50317109  0.00535873  0.18110597     0.44200
Cu249      Cu  0.57237369  0.06091881  0.20923831     0.42000
Cu250      Cu  0.49208784  0.06929599  0.20459559     0.43900
N251        N  0.45484873  0.00495417  0.18283098    -0.34900
N252        N  0.45021792  0.02810178  0.19143348    -0.29200
C253        C  0.41561282  0.02010528  0.18996404    -0.05300
C254        C  0.39758320  0.99036153  0.18001092     0.07000
C255        C  0.42362705  0.98177251  0.17570450     0.00800
H256        H  0.40439190  0.03487407  0.19570951     0.08400
H257        H  0.42059532  0.96084272  0.16760217     0.07500
N258        N  0.53737663  0.10431580  0.21811984    -0.36400
N259        N  0.56535597  0.09986480  0.22050634    -0.28500
C260        C  0.58868806  0.12551448  0.23047890    -0.03800
C261        C  0.57535244  0.14809331  0.23449165     0.04800
C262        C  0.54262478  0.13344896  0.22630377     0.02900
H263        H  0.61321473  0.12677998  0.23450013     0.08000
H264        H  0.52373986  0.14315335  0.22619843     0.06900
N265        N  0.70790927  0.90988086  0.14271209    -0.27500
N266        N  0.68999985  0.88518284  0.15414651    -0.35400
C267        C  0.66968555  0.89493569  0.16276638     0.00800
C268        C  0.67473235  0.92709421  0.15638274     0.06800
C269        C  0.69926750  0.93593952  0.14371783    -0.06300
H270        H  0.65187526  0.87932448  0.17272507     0.07500
H271        H  0.71032168  0.95965665  0.13591087     0.08700
Cu272      Cu  0.69227232  0.83826933  0.15716799     0.44200
Cu273      Cu  0.74351975  0.90692709  0.12644026     0.42000
Cu274      Cu  0.75007193  0.82539246  0.12978493     0.43900
N275        N  0.69413377  0.79089577  0.15637906    -0.34900
N276        N  0.71480984  0.78575745  0.14611288    -0.29200
C277        C  0.70714418  0.75130565  0.14752623    -0.05300
C278        C  0.68002094  0.73370817  0.15914902     0.07000
C279        C  0.67290105  0.75997569  0.16463475     0.00800
H280        H  0.71917853  0.73948097  0.14006852     0.08400
H281        H  0.65308963  0.75679410  0.17366842     0.07500
N282        N  0.78233925  0.86900595  0.11448035    -0.36400
N283        N  0.77965676  0.89829715  0.11304590    -0.28500
C284        C  0.80519671  0.92149714  0.10252940    -0.03800
C285        C  0.82496777  0.90612706  0.09706830     0.04800
C286        C  0.80973141  0.87291439  0.10498635     0.02900
H287        H  0.80997922  0.94822154  0.09965107     0.08000
H288        H  0.81826036  0.85316975  0.10410404     0.06900
N289        N  0.19974817  0.91076176  0.14228823    -0.27500
N290        N  0.19303230  0.88344696  0.15210922    -0.35400
C291        C  0.22294363  0.89132873  0.16043407     0.00800
C292        C  0.25029440  0.92549846  0.15588893     0.06800
C293        C  0.23455043  0.93698293  0.14422388    -0.06300
H294        H  0.22473751  0.87320195  0.16912309     0.07500
H295        H  0.24759393  0.96178740  0.13716601     0.08700
Cu296      Cu  0.14422303  0.83545424  0.15345425     0.44200
Cu297      Cu  0.15994492  0.90890268  0.12663237     0.42000
Cu298      Cu  0.07234807  0.82298553  0.12715174     0.43900
N299        N  0.09579053  0.78723722  0.15212180    -0.34900
N300        N  0.06936621  0.78207709  0.14231412    -0.29200
C301        C  0.04291488  0.74724561  0.14356531    -0.05300
C302        C  0.05317231  0.72958379  0.15475237     0.07000
C303        C  0.08693886  0.75607833  0.15987348     0.00800
H304        H  0.01880662  0.73547385  0.13629916     0.08400
H305        H  0.10429376  0.75288293  0.16839770     0.07500
N306        N  0.08267216  0.86883757  0.11358038    -0.36400
N307        N  0.11398109  0.89956439  0.11337766    -0.28500
C308        C  0.11085648  0.92359314  0.10383767    -0.03800
C309        C  0.07596119  0.90755833  0.09778110     0.04800
C310        C  0.05906945  0.87267947  0.10416458     0.02900
H311        H  0.13259654  0.95084826  0.10147872     0.08000
H312        H  0.03125992  0.85184215  0.10244906     0.06900
C313        C  0.99537899  0.99632082  0.03359784     0.86300
C314        C  0.95686714  0.97669205  0.04136787    -0.54000
C315        C  0.95638661  0.97433371  0.05793059     0.09200
C316        C  0.99422822  0.99200497  0.06535839     0.20100
C317        C  0.01386398  0.03301766  0.04204794    -0.54700
C318        C  0.01368968  0.03069675  0.05853215     0.09300
C319        C  0.01295326  0.97532787  0.04067485    -0.54200
C320        C  0.01249874  0.97318785  0.05725094     0.09900
H321        H  0.93169092  0.96501593  0.03491703     0.14400
H322        H  0.99413991  0.99088737  0.07882489     0.00100
H323        H  0.02501572  0.05872376  0.03562473     0.14700
H324        H  0.02497758  0.96348750  0.03316280     0.14500
C325        C  0.00665147  0.00639847  0.96117889     0.86300
C326        C  0.98937532  0.96835443  0.95404840    -0.54000
C327        C  0.98855705  0.96772488  0.93753475     0.09200
C328        C  0.00607920  0.00509494  0.92941947     0.20100
C329        C  0.04478606  0.02664173  0.95299563    -0.54700
C330        C  0.04418579  0.02549114  0.93638683     0.09300
C331        C  0.98716425  0.02443277  0.95320450    -0.54200
C332        C  0.98664495  0.02344953  0.93668133     0.09900
H333        H  0.97979984  0.94406313  0.96145714     0.14400
H334        H  0.00559176  0.00440369  0.91594403     0.00100
H335        H  0.07007501  0.04187161  0.95923815     0.14700
H336        H  0.97526843  0.03738893  0.96001524     0.14500
C337        C  0.33162862  0.67127130  0.62875495     0.86300
C338        C  0.31414563  0.63389184  0.62090427    -0.54000
C339        C  0.31718537  0.63490210  0.60437862     0.09200
C340        C  0.33631302  0.67323932  0.59698468     0.20100
C341        C  0.37052490  0.69230143  0.62186361    -0.54700
C342        C  0.37304740  0.69316677  0.60536299     0.09300
C343        C  0.31239425  0.68935735  0.62017574    -0.54200
C344        C  0.31532282  0.69076384  0.60360333     0.09900
H345        H  0.29962239  0.60869544  0.62773412     0.14400
H346        H  0.33810496  0.67379584  0.58354089     0.00100
H347        H  0.39423365  0.70590624  0.62943979     0.14700
H348        H  0.29728012  0.69996887  0.62611459     0.14500
C349        C  0.33785368  0.67329769  0.70133462     0.86300
C350        C  0.35435375  0.71134253  0.70860995    -0.54000
C351        C  0.35406750  0.71163602  0.72521711     0.09200
C352        C  0.33775475  0.67410235  0.73315168     0.20100
C353        C  0.36016386  0.65809498  0.70943817    -0.54700
C354        C  0.35955098  0.65804992  0.72600096     0.09300
C355        C  0.30018238  0.65097048  0.70934441    -0.54200
C356        C  0.30014348  0.65210088  0.72587832     0.09900
H357        H  0.36591757  0.73590865  0.70129904     0.14400
H358        H  0.33745106  0.67438973  0.74662860     0.00100
H359        H  0.37644926  0.64927607  0.70317921     0.14700
H360        H  0.27556019  0.63530898  0.70254709     0.14500
N361        N  0.53493692  0.94951454  0.81295179    -0.27500
N362        N  0.53045807  0.97150988  0.82250151    -0.35400
C363        C  0.56136568  0.99212552  0.83050824     0.00800
C364        C  0.58668504  0.98280315  0.82576637     0.06800
C365        C  0.56887455  0.95578546  0.81454637    -0.06300
H366        H  0.56554551  0.01351951  0.83858196     0.07500
H367        H  0.57991825  0.94196105  0.80784427     0.08700
Cu368      Cu  0.48394810  0.97552382  0.82277538     0.44200
Cu369      Cu  0.49513854  0.91286571  0.79765491     0.42000
Cu370      Cu  0.41428254  0.92015663  0.79438297     0.43900
N371        N  0.43878931  0.98053997  0.81830795    -0.34900
N372        N  0.41362951  0.96093295  0.80770128    -0.29200
C373        C  0.38912351  0.97186914  0.80729292    -0.05300
C374        C  0.39948680  0.99998680  0.81803686     0.07000
C375        C  0.43090661  0.00429478  0.82493346     0.00800
H376        H  0.36560979  0.96041486  0.79962552     0.08400
H377        H  0.44660302  0.02264157  0.83438329     0.07500
N378        N  0.42133282  0.88131708  0.78255523    -0.36400
N379        N  0.45084873  0.87889601  0.78361272    -0.28500
C380        C  0.44686872  0.85140683  0.77443762    -0.03800
C381        C  0.41309060  0.83542291  0.76734625     0.04800
C382        C  0.39778005  0.85528776  0.77274922     0.02900
H383        H  0.46693791  0.84332467  0.77319405     0.08000
H384        H  0.37161881  0.85150238  0.76960573     0.06900
N385        N  0.29379228  0.22276240  0.85225947    -0.27500
N386        N  0.31571077  0.21835266  0.84245173    -0.35400
C387        C  0.33807323  0.24988952  0.83491042     0.00800
C388        C  0.32987806  0.27553897  0.84010528     0.06800
C389        C  0.30169699  0.25732473  0.85119060    -0.06300
H390        H  0.35888372  0.25381599  0.82627423     0.07500
H391        H  0.28846468  0.26845550  0.85829188     0.08700
Cu392      Cu  0.31547817  0.17022275  0.83977284     0.44200
Cu393      Cu  0.25421013  0.18147101  0.86660588     0.42000
Cu394      Cu  0.25133374  0.09484191  0.86375560     0.43900
N395        N  0.31224280  0.12033479  0.83936962    -0.34900
N396        N  0.28875563  0.09232567  0.84823750    -0.29200
C397        C  0.29449903  0.06459073  0.84574615    -0.05300
C398        C  0.32305976  0.07569641  0.83475890     0.07000
C399        C  0.33354273  0.11130119  0.83106481     0.00800
H400        H  0.27994528  0.03877533  0.85200753     0.08400
H401        H  0.35555686  0.12962097  0.82312836     0.07500
N402        N  0.21520009  0.10325403  0.87754896    -0.36400
N403        N  0.21598555  0.13440604  0.87845360    -0.28500
C404        C  0.18830603  0.13003420  0.88792251    -0.03800
C405        C  0.16909867  0.09441428  0.89326792     0.04800
C406        C  0.18712602  0.07838386  0.88652077     0.02900
H407        H  0.18289261  0.15137586  0.89084767     0.08000
H408        H  0.18000463  0.05045200  0.88783842     0.06900
N409        N  0.04251321  0.45631606  0.80648288    -0.27500
N410        N  0.01949923  0.46075140  0.81544855    -0.35400
C411        C  0.99552382  0.42903676  0.82243695     0.00800
C412        C  0.00349330  0.40305058  0.81747840     0.06800
C413        C  0.03374573  0.42151180  0.80748396    -0.06300
H414        H  0.97482881  0.42577190  0.83095602     0.07500
H415        H  0.04836009  0.41044760  0.80141870     0.08700
Cu416      Cu  0.02236484  0.51000499  0.81771353     0.44200
Cu417      Cu  0.08504218  0.49875177  0.79388403     0.42000
Cu418      Cu  0.09589430  0.58890804  0.79764881     0.43900
N419        N  0.02808181  0.56075124  0.81783102    -0.34900
N420        N  0.05470647  0.58977787  0.81069258    -0.29200
C421        C  0.04957966  0.61786253  0.81314814    -0.05300
C422        C  0.01819806  0.60591475  0.82239428     0.07000
C423        C  0.00543711  0.56945760  0.82499396     0.00800
H424        H  0.06708376  0.64461770  0.80817567     0.08400
H425        H  0.98151416  0.55038724  0.83174888     0.07500
N426        N  0.13026676  0.57776878  0.78425547    -0.36400
N427        N  0.12595853  0.54518743  0.78273797    -0.28500
C428        C  0.15189514  0.54719778  0.77278781    -0.03800
C429        C  0.17390893  0.58281629  0.76791694     0.04800
C430        C  0.15915835  0.60133117  0.77533008     0.02900
H431        H  0.15358853  0.52408465  0.76901398     0.08000
H432        H  0.16868328  0.62989777  0.77425186     0.06900
N433        N  0.80751069  0.72653790  0.85404123    -0.27500
N434        N  0.81156940  0.70402271  0.84468410    -0.35400
C435        C  0.78099282  0.68407138  0.83641365     0.00800
C436        C  0.75632791  0.69428922  0.84085934     0.06800
C437        C  0.77405212  0.72131902  0.85205221    -0.06300
H438        H  0.77667946  0.66294369  0.82813502     0.07500
H439        H  0.76343653  0.73608369  0.85829756     0.08700
Cu440      Cu  0.85778327  0.70020629  0.84408998     0.44200
Cu441      Cu  0.84799343  0.76314051  0.86897483     0.42000
Cu442      Cu  0.93075309  0.75775268  0.87007384     0.43900
N443        N  0.90464435  0.69791151  0.84625280    -0.34900
N444        N  0.93157237  0.71885118  0.85584091    -0.29200
C445        C  0.95740984  0.70986332  0.85475084    -0.05300
C446        C  0.94585672  0.68161527  0.84408081     0.07000
C447        C  0.91244019  0.67494949  0.83885712     0.00800
H448        H  0.98230867  0.72238418  0.86149105     0.08400
H449        H  0.89498129  0.65484970  0.83031094     0.07500
N450        N  0.92356631  0.79542986  0.88236280    -0.36400
N451        N  0.89382938  0.79751491  0.88195029    -0.28500
C452        C  0.89862892  0.82527686  0.89106030    -0.03800
C453        C  0.93309733  0.84168066  0.89746386     0.04800
C454        C  0.94795345  0.82168336  0.89176770     0.02900
H455        H  0.87853177  0.83318014  0.89277032     0.08000
H456        H  0.97402442  0.82492545  0.89448227     0.06900
N457        N  0.91982220  0.19965406  0.84873153    -0.27500
N458        N  0.89351113  0.19338128  0.83862858    -0.35400
C459        C  0.90181560  0.22421294  0.83068313     0.00800
C460        C  0.93507005  0.25138789  0.83598230     0.06800
C461        C  0.94559040  0.23468659  0.84748647    -0.06300
H462        H  0.88442836  0.22681441  0.82196327     0.07500
H463        H  0.96937483  0.24728432  0.85496246     0.08700
Cu464      Cu  0.84558155  0.14424130  0.83765556     0.44200
Cu465      Cu  0.91773566  0.16051406  0.86452691     0.42000
Cu466      Cu  0.83158570  0.07679499  0.86849782     0.43900
N467        N  0.79671890  0.09693681  0.84181508    -0.34900
N468        N  0.79117700  0.07301831  0.85340678    -0.29200
C469        C  0.75598993  0.04731872  0.85366929    -0.05300
C470        C  0.73875572  0.05526780  0.84154191     0.07000
C471        C  0.76531111  0.08692673  0.83432285     0.00800
H472        H  0.74384959  0.02461495  0.86208508     0.08400
H473        H  0.76184346  0.10223622  0.82468996     0.07500
N474        N  0.87778807  0.08699004  0.88089471    -0.36400
N475        N  0.90914953  0.11731082  0.87934468    -0.28500
C476        C  0.93387295  0.11461572  0.88830638    -0.03800
C477        C  0.91745455  0.08084974  0.89575511     0.04800
C478        C  0.88175155  0.06423882  0.89089001     0.02900
H479        H  0.96204012  0.13533681  0.88892871     0.08000
H480        H  0.86018427  0.03748294  0.89423685     0.06900
N481        N  0.55561362  0.60652532  0.80829998    -0.27500
N482        N  0.55014636  0.58127717  0.81915619    -0.35400
C483        C  0.58155362  0.59068462  0.82652330     0.00800
C484        C  0.60809292  0.62312652  0.81983549     0.06800
C485        C  0.59064469  0.63253571  0.80838543    -0.06300
H486        H  0.58497057  0.57482931  0.83590599     0.07500
H487        H  0.60224301  0.65676212  0.80089900     0.08700
Cu488      Cu  0.50071227  0.53409871  0.82273908     0.44200
Cu489      Cu  0.51502797  0.60439694  0.79403171     0.42000
Cu490      Cu  0.42763842  0.52122124  0.79695074     0.43900
N491        N  0.45171626  0.48588779  0.82151557    -0.34900
N492        N  0.42521695  0.48087208  0.81178027    -0.29200
C493        C  0.39878564  0.44609504  0.81278133    -0.05300
C494        C  0.40930925  0.42818622  0.82355352     0.07000
C495        C  0.44277785  0.45447800  0.82904286     0.00800
H496        H  0.37427408  0.43444396  0.80576573     0.08400
H497        H  0.45961463  0.45133756  0.83785178     0.07500
N498        N  0.43770005  0.56563959  0.78292010    -0.36400
N499        N  0.46933360  0.59578743  0.78183780    -0.28500
C500        C  0.46631075  0.61932666  0.77200753    -0.03800
C501        C  0.43100277  0.60325952  0.76677979     0.04800
C502        C  0.41374499  0.56914862  0.77378023     0.02900
H503        H  0.48834958  0.64593499  0.76882525     0.08000
H504        H  0.38563400  0.54862378  0.77258124     0.06900
C505        C  0.71073928  0.67087196  0.81892415    -0.26500
C506        C  0.71848667  0.67796761  0.83544967    -0.14600
C507        C  0.68989939  0.66789289  0.84668363     0.36000
C508        C  0.65415131  0.65078336  0.84115542    -0.26000
C509        C  0.64638025  0.64361257  0.82466473    -0.15200
C510        C  0.67510408  0.65404913  0.81341251     0.37100
N511        N  0.66885752  0.64649121  0.79648296    -0.89500
H512        H  0.73255201  0.67832049  0.81024381     0.18200
H513        H  0.63211326  0.64252184  0.84979279     0.18200
N514        N  0.69711812  0.67384599  0.86371815    -0.88500
H515        H  0.65636489  0.66012034  0.79177907     0.35600
H516        H  0.65150241  0.61876797  0.79520148     0.40700
H517        H  0.70793582  0.65795760  0.86757613     0.40300
H518        H  0.67314148  0.66490360  0.87032126     0.35200
C519        C  0.00688636  0.34923581  0.82636597    -0.26500
C520        C  0.98540590  0.36438909  0.82246146    -0.14600
C521        C  0.94734659  0.34192896  0.82282667     0.36000
C522        C  0.93188878  0.30547060  0.82719762    -0.26000
C523        C  0.95326779  0.29034796  0.83134748    -0.15200
C524        C  0.99131623  0.31254559  0.83082556     0.37100
N525        N  0.01406980  0.29773283  0.83445008    -0.89500
H526        H  0.03604561  0.36616262  0.82594815     0.18200
H527        H  0.90270027  0.28890864  0.82750463     0.18200
N528        N  0.92354521  0.35476301  0.81821456    -0.88500
H529        H  0.04134422  0.31769587  0.83360644     0.35600
H530        H  0.00978711  0.27889982  0.82554743     0.40700
H531        H  0.93137828  0.36718586  0.80675971     0.40300
H532        H  0.92525946  0.37341120  0.82666498     0.35200
C533        C  0.00176432  0.68158295  0.83577016    -0.26500
C534        C  0.96464800  0.66215828  0.83933667    -0.14600
C535        C  0.94557168  0.62435031  0.83794482     0.36000
C536        C  0.96358644  0.60696935  0.83215002    -0.26000
C537        C  0.00067256  0.62629490  0.82816006    -0.15200
C538        C  0.01993674  0.66407578  0.83023136     0.37100
N539        N  0.05797906  0.68486992  0.82702516    -0.89500
H540        H  0.01667999  0.71062368  0.83703728     0.18200
H541        H  0.94825168  0.57805416  0.83070887     0.18200
N542        N  0.90810958  0.60363486  0.84271652    -0.88500
H543        H  0.07073982  0.69807345  0.83765358     0.35600
H544        H  0.06250839  0.70448012  0.81819835     0.40700
H545        H  0.90652403  0.60698762  0.85518335     0.40300
H546        H  0.89807968  0.57612046  0.84103533     0.35200
C547        C  0.38636776  0.33147235  0.83192096    -0.26500
C548        C  0.34927596  0.31446497  0.83553838    -0.14600
C549        C  0.33165699  0.33478700  0.83458503     0.36000
C550        C  0.35193181  0.37191160  0.83071671    -0.26000
C551        C  0.38933366  0.38910144  0.82769928    -0.15200
C552        C  0.40643262  0.36820479  0.82798542     0.37100
N553        N  0.44373585  0.38292770  0.82367626    -0.89500
H554        H  0.40022097  0.31621418  0.83235208     0.18200
H555        H  0.33849257  0.38756217  0.83008676     0.18200
N556        N  0.29326319  0.31763966  0.83716876    -0.88500
H557        H  0.45977061  0.40126484  0.83241843     0.35600
H558        H  0.44865453  0.39604804  0.81237899     0.40700
H559        H  0.28081665  0.29911955  0.82789331     0.40300
H560        H  0.28461408  0.33641040  0.83607997     0.35200
C561        C  0.67456034  0.03164843  0.84948767    -0.26500
C562        C  0.69991112  0.03544085  0.83766194    -0.14600
C563        C  0.68781320  0.02038610  0.82225685     0.36000
C564        C  0.65093229  0.00305070  0.81876730    -0.26000
C565        C  0.62541241  0.00017446  0.83036783    -0.15200
C566        C  0.63736979  0.01401458  0.84604666     0.37100
N567        N  0.61178313  0.00953536  0.85849886    -0.89500
H568        H  0.68387836  0.04273618  0.86140278     0.18200
H569        H  0.64229912  0.99224516  0.80676439     0.18200
N570        N  0.71230288  0.02143935  0.81007937    -0.88500
H571        H  0.62501273  0.02123554  0.86929043     0.35600
H572        H  0.59558257  0.98189284  0.86092791     0.40700
H573        H  0.72634453  0.00945531  0.81491249     0.40300
H574        H  0.73085437  0.04833466  0.80712512     0.35200
C575        C  0.34234375  0.00058307  0.82359207    -0.26500
C576        C  0.38017576  0.01992933  0.82173266    -0.14600
C577        C  0.39850554  0.05796534  0.82303504     0.36000
C578        C  0.37919553  0.07526511  0.82693013    -0.26000
C579        C  0.34163668  0.05583901  0.82958916    -0.15200
C580        C  0.32286305  0.01809321  0.82740487     0.37100
N581        N  0.28411874  0.99775881  0.82872002    -0.89500
H582        H  0.32791886  0.97158669  0.82218946     0.18200
H583        H  0.39403263  0.10428604  0.82820735     0.18200
N584        N  0.43649699  0.08009120  0.81988959    -0.88500
H585        H  0.27451295  0.97039883  0.82676120     0.35600
H586        H  0.27389215  0.00664776  0.81938179     0.40700
H587        H  0.44248314  0.07362130  0.80855279     0.40300
H588        H  0.45066422  0.07516565  0.82883971     0.35200
C589        C  0.41983019  0.80029410  0.74505265    -0.26500
C590        C  0.39722643  0.80408549  0.75628022    -0.14600
C591        C  0.36014037  0.77746861  0.75702569     0.36000
C592        C  0.34651427  0.74821751  0.74634705    -0.26000
C593        C  0.36912421  0.74479902  0.73503415    -0.15200
C594        C  0.40626009  0.77105454  0.73452040     0.37100
N595        N  0.43111780  0.76790139  0.72395018    -0.89500
H596        H  0.44837540  0.82021100  0.74446152     0.18200
H597        H  0.31820400  0.72755098  0.74704209     0.18200
N598        N  0.33672265  0.77942620  0.76899787    -0.88500
H599        H  0.42392814  0.76888284  0.71194444     0.35600
H600        H  0.42916079  0.74294665  0.72617954     0.40700
H601        H  0.34576837  0.77674087  0.78041588     0.40300
H602        H  0.31037451  0.75775370  0.76795232     0.35200
C603        C  0.26401923  0.60830492  0.74771092    -0.26500
C604        C  0.26692315  0.63374006  0.73604182    -0.14600
C605        C  0.23892041  0.64206000  0.73482652     0.36000
C606        C  0.20836371  0.62378633  0.74494007    -0.26000
C607        C  0.20536234  0.59830627  0.75661272    -0.15200
C608        C  0.23367559  0.59051216  0.75795710     0.37100
N609        N  0.23325721  0.56596281  0.77000712    -0.89500
H610        H  0.28566864  0.60232036  0.74891441     0.18200
H611        H  0.18706429  0.63030654  0.74392694     0.18200
N612        N  0.24095310  0.66967857  0.72403590    -0.88500
H613        H  0.21213460  0.54007600  0.76760087     0.35600
H614        H  0.22908497  0.57374856  0.78140806     0.40700
H615        H  0.26602376  0.68395373  0.71821922     0.40300
H616        H  0.23902172  0.68866904  0.73113142     0.35200
C617        C  0.39863588  0.66426760  0.74942562    -0.26500
C618        C  0.37857400  0.64419123  0.73613808    -0.14600
C619        C  0.37616298  0.61083888  0.73296255     0.36000
C620        C  0.39403658  0.59836940  0.74298380    -0.26000
C621        C  0.41448272  0.61866050  0.75612531    -0.15200
C622        C  0.41663242  0.65193607  0.75940742     0.37100
N623        N  0.43548485  0.67299691  0.77314970    -0.89500
H624        H  0.40047463  0.68981697  0.75204576     0.18200
H625        H  0.39173425  0.57254171  0.74053559     0.18200
N626        N  0.35460831  0.58895453  0.71992071    -0.88500
H627        H  0.46292221  0.68167827  0.77181467     0.35600
H628        H  0.42546249  0.65676531  0.78360740     0.40700
H629        H  0.33492822  0.56404333  0.72478188     0.40300
H630        H  0.37130394  0.58448428  0.71217484     0.35200
C631        C  0.31533881  0.68557433  0.65682061    -0.26500
C632        C  0.33136222  0.66979117  0.64756050    -0.14600
C633        C  0.34883333  0.65413492  0.65632153     0.36000
C634        C  0.35120232  0.65631211  0.67325688    -0.26000
C635        C  0.33588674  0.67280921  0.68253014    -0.15200
C636        C  0.31695873  0.68697208  0.67381217     0.37100
N637        N  0.29842816  0.70282416  0.68161904    -0.89500
H638        H  0.30109012  0.69738615  0.65116921     0.18200
H639        H  0.36454588  0.64351324  0.67884723     0.18200
N640        N  0.36410004  0.63491556  0.64864714    -0.88500
H641        H  0.31650243  0.72554015  0.68800087     0.35600
H642        H  0.27825862  0.68401678  0.68936415     0.40700
H643        H  0.38389238  0.65129732  0.64016887     0.40300
H644        H  0.34383067  0.61193166  0.64311929     0.35200
C645        C  0.07889375  0.06795558  0.91375788    -0.26500
C646        C  0.07685685  0.04351886  0.92577685    -0.14600
C647        C  0.10461946  0.03494599  0.92664200     0.36000
C648        C  0.13414619  0.05170030  0.91588895    -0.26000
C649        C  0.13686455  0.07706290  0.90418876    -0.15200
C650        C  0.10861353  0.08490632  0.90296459     0.37100
N651        N  0.10967299  0.10925445  0.89054464    -0.89500
H652        H  0.05706553  0.07368660  0.91273798     0.18200
H653        H  0.15533324  0.04501310  0.91678811     0.18200
N654        N  0.10292188  0.00833060  0.93784874    -0.88500
H655        H  0.08681787  0.11195987  0.89129581     0.35600
H656        H  0.10860266  0.09764176  0.87931666     0.40700
H657        H  0.07861824  0.98419996  0.93615097     0.40300
H658        H  0.10330919  0.01696069  0.94964604     0.35200
C659        C  0.99781496  0.93136147  0.91712166    -0.26500
C660        C  0.97451061  0.93436563  0.92811505    -0.14600
C661        C  0.93801131  0.90666515  0.92915659     0.36000
C662        C  0.92578814  0.87642727  0.91941309    -0.26000
C663        C  0.94901788  0.87308966  0.90839140    -0.15200
C664        C  0.98568127  0.90113116  0.90733395     0.37100
N665        N  0.01094144  0.90078197  0.89602325    -0.89500
H666        H  0.02573003  0.95288176  0.91605080     0.18200
H667        H  0.89762522  0.85550426  0.92035634     0.18200
N668        N  0.91234812  0.90921886  0.93940093    -0.88500
H669        H  0.99996826  0.89621941  0.88441274     0.35600
H670        H  0.01609464  0.88029736  0.89938387     0.40700
H671        H  0.91282774  0.93327039  0.93661462     0.40300
H672        H  0.91993015  0.90971886  0.95145366     0.35200
C673        C  0.94171670  0.01568419  0.91601117    -0.26500
C674        C  0.96904296  0.03864503  0.92652074    -0.14600
C675        C  0.98034221  0.07573736  0.92645948     0.36000
C676        C  0.96316626  0.08880259  0.91636587    -0.26000
C677        C  0.93498219  0.06569739  0.90614619    -0.15200
C678        C  0.92470784  0.02880888  0.90571353     0.37100
N679        N  0.89798445  0.00506501  0.89447545    -0.89500
H680        H  0.93386629  0.98742042  0.91574675     0.18200
H681        H  0.97185423  0.11726322  0.91658507     0.18200
N682        N  0.01002855  0.10095401  0.93601745    -0.88500
H683        H  0.89355598  0.97882298  0.89575959     0.35600
H684        H  0.90843729  0.01396602  0.88278563     0.40700
H685        H  0.03263492  0.09872278  0.93323644     0.40300
H686        H  0.00352625  0.09452172  0.94828768     0.35200
C687        C  0.03475627  0.01998986  0.98962640    -0.26500
C688        C  0.00369391  0.00499442  0.97990837    -0.14600
C689        C  0.96956359  0.98752993  0.98814513     0.36000
C690        C  0.96771155  0.98532428  0.00509503    -0.26000
C691        C  0.99870168  0.00018390  0.01485667    -0.15200
C692        C  0.03286252  0.01829065  0.00663545     0.37100
N693        N  0.06667651  0.03570859  0.01497107    -0.89500
H694        H  0.06143735  0.03333055  0.98430854     0.18200
H695        H  0.94094607  0.97134629  0.01025852     0.18200
N696        N  0.93561646  0.97114800  0.97990795    -0.88500
H697        H  0.06911004  0.01735160  0.02250327     0.35600
H698        H  0.06892455  0.05707216  0.02169504     0.40700
H699        H  0.93342519  0.95101772  0.97224412     0.40300
H700        H  0.93259106  0.99036433  0.97343791     0.35200
C701        C  0.03351357  0.90344572  0.07572314    -0.26500
C702        C  0.05979333  0.92432153  0.08724051    -0.14600
C703        C  0.06981036  0.96093366  0.08871315     0.36000
C704        C  0.05436328  0.97600649  0.07861920    -0.26000
C705        C  0.02897597  0.95557912  0.06686733    -0.15200
C706        C  0.01819904  0.91864324  0.06552105     0.37100
N707        N  0.99093228  0.89563154  0.05438289    -0.89500
H708        H  0.02499580  0.87516498  0.07453040     0.18200
H709        H  0.06214383  0.00398679  0.08011852     0.18200
N710        N  0.09467113  0.98277696  0.10088822    -0.88500
H711        H  0.00013932  0.90481857  0.04256080     0.35600
H712        H  0.96769324  0.89715780  0.05651375     0.40700
H713        H  0.08162456  0.99227418  0.10839364     0.40300
H714        H  0.11635017  0.00502226  0.09511294     0.35200
C715        C  0.88572239  0.91588345  0.08977729    -0.26500
C716        C  0.85768764  0.92286877  0.08645363    -0.14600
C717        C  0.86152064  0.94579048  0.07319424     0.36000
C718        C  0.89395970  0.96245758  0.06406882    -0.26000
C719        C  0.92233372  0.95611368  0.06771650    -0.15200
C720        C  0.91774598  0.93208233  0.08051804     0.37100
N721        N  0.94514690  0.92323393  0.08392444    -0.89500
H722        H  0.88302785  0.89800732  0.09976399     0.18200
H723        H  0.89718847  0.98062404  0.05412078     0.18200
N724        N  0.83230748  0.95149728  0.06882066    -0.88500
H725        H  0.93376880  0.89534455  0.08288905     0.35600
H726        H  0.95318936  0.92999117  0.09593222     0.40700
H727        H  0.81066180  0.92659599  0.06524753     0.40300
H728        H  0.83941150  0.96884521  0.05878450     0.35200
C729        C  0.65866819  0.95552389  0.17837462    -0.26500
C730        C  0.65667560  0.94671733  0.16194445    -0.14600
C731        C  0.63512501  0.95418466  0.15149189     0.36000
C732        C  0.61598251  0.96997773  0.15766515    -0.26000
C733        C  0.61788024  0.97880825  0.17412172    -0.15200
C734        C  0.63961226  0.97156609  0.18453880     0.37100
N735        N  0.64130666  0.97901837  0.20149415    -0.89500
H736        H  0.67475935  0.94946154  0.18653141     0.18200
H737        H  0.59938952  0.97527496  0.14949155     0.18200
N738        N  0.63086874  0.94460380  0.13473887    -0.88500
H739        H  0.66828242  0.99655657  0.20438119     0.35600
H740        H  0.63250024  0.95482001  0.20798791     0.40700
H741        H  0.62152077  0.91701404  0.13398987     0.40300
H742        H  0.65605329  0.95887403  0.12891649     0.35200
C743        C  0.30414026  0.92170163  0.16434004    -0.26500
C744        C  0.28839711  0.94324195  0.16171922    -0.14600
C745        C  0.30852848  0.98014397  0.16581539     0.36000
C746        C  0.34352272  0.99451755  0.17200482    -0.26000
C747        C  0.35956403  0.97319009  0.17421785    -0.15200
C748        C  0.33927168  0.93609296  0.17054186     0.37100
N749        N  0.35397632  0.91290894  0.17336866    -0.89500
H750        H  0.28887946  0.89329500  0.16152590     0.18200
H751        H  0.35851889  0.02291117  0.17485829     0.18200
N752        N  0.29391390  0.00355980  0.16439603    -0.88500
H753        H  0.33570151  0.88650948  0.16995973     0.35600
H754        H  0.35760387  0.91201533  0.18587019     0.40700
H755        H  0.26931857  0.99195648  0.17076192     0.40300
H756        H  0.28952209  0.00640689  0.15217689     0.35200
C757        C  0.06430832  0.07597250  0.07491125    -0.26500
C758        C  0.02942761  0.06270347  0.06895846    -0.14600
C759        C  0.00968000  0.07946584  0.07333848     0.36000
C760        C  0.02532664  0.10948560  0.08339592    -0.26000
C761        C  0.06046141  0.12317199  0.08948357    -0.15200
C762        C  0.07983238  0.10549818  0.08540603     0.37100
N763        N  0.11467426  0.11671217  0.09220216    -0.89500
H764        H  0.07936434  0.06297639  0.07148328     0.18200
H765        H  0.00981923  0.12229731  0.08630300     0.18200
N766        N  0.97364234  0.06645681  0.06774656    -0.88500
H767        H  0.12525156  0.10117151  0.08780744     0.35600
H768        H  0.11098735  0.11167201  0.10472347     0.40700
H769        H  0.95758619  0.03965570  0.07167500     0.40300
H770        H  0.97415598  0.06709874  0.05506717     0.35200
C771        C  0.04902338  0.35844033  0.16320319    -0.26500
C772        C  0.02975138  0.32062425  0.16290500    -0.14600
C773        C  0.99249546  0.30203391  0.16703942     0.36000
C774        C  0.97543774  0.32156718  0.17096274    -0.26000
C775        C  0.99451265  0.35943799  0.17075628    -0.15200
C776        C  0.03195584  0.37805472  0.16712495     0.37100
N777        N  0.05278720  0.41673490  0.16781631    -0.89500
H778        H  0.07765433  0.37285858  0.16028730     0.18200
H779        H  0.94686174  0.30695786  0.17399503     0.18200
N780        N  0.97150136  0.26347010  0.16794686    -0.88500
H781        H  0.07987973  0.42616703  0.16473751     0.35600
H782        H  0.05244945  0.42390529  0.17984106     0.40700
H783        H  0.98449061  0.25403026  0.17557843     0.40300
H784        H  0.96961150  0.25318966  0.15637348     0.35200
C785        C  0.05510008  0.67496899  0.16419906    -0.26500
C786        C  0.03436814  0.69043213  0.15930320    -0.14600
C787        C  0.99635240  0.66824166  0.15902149     0.36000
C788        C  0.98007837  0.63155571  0.16350744    -0.26000
C789        C  0.00093015  0.61627239  0.16822589    -0.15200
C790        C  0.03892901  0.63838528  0.16854655     0.37100
N791        N  0.06176676  0.62480646  0.17375103    -0.89500
H792        H  0.08427309  0.69127808  0.16453440     0.18200
H793        H  0.95088450  0.61491169  0.16335876     0.18200
N794        N  0.97395635  0.68291985  0.15473742    -0.88500
H795        H  0.05899571  0.60493010  0.16577036     0.35600
H796        H  0.05336246  0.61326108  0.18535044     0.40700
H797        H  0.95650312  0.67855182  0.16451185     0.40300
H798        H  0.95827469  0.66866028  0.14485205     0.35200
C799        C  0.29922123  0.32713825  0.17167053    -0.26500
C800        C  0.29130628  0.33161167  0.15562353    -0.14600
C801        C  0.32006549  0.35322956  0.14476156     0.36000
C802        C  0.35582885  0.37002510  0.15018344    -0.26000
C803        C  0.36390836  0.36558698  0.16626872    -0.15200
C804        C  0.33510370  0.34375360  0.17712530     0.37100
N805        N  0.34210282  0.33940044  0.19378976    -0.89500
H806        H  0.27718562  0.31082677  0.18004702     0.18200
H807        H  0.37750129  0.38674969  0.14172298     0.18200
N808        N  0.31375376  0.35986759  0.12836519    -0.88500
H809        H  0.31814039  0.32230229  0.20005192     0.35600
H810        H  0.35308676  0.36470162  0.19920773     0.40700
H811        H  0.29653797  0.37051714  0.12851469     0.40300
H812        H  0.30108776  0.33541300  0.12227626     0.35200
C813        C  0.60629206  0.63846204  0.17136026    -0.26500
C814        C  0.62521953  0.61968559  0.17121956    -0.14600
C815        C  0.66246053  0.63867792  0.16708921     0.36000
C816        C  0.67968813  0.67568662  0.16328586    -0.26000
C817        C  0.66073119  0.69455273  0.16352820    -0.15200
C818        C  0.62339026  0.67543941  0.16743771     0.37100
N819        N  0.60250578  0.69315164  0.16683387    -0.89500
H820        H  0.57771190  0.62401949  0.17438541     0.18200
H821        H  0.70819633  0.68980943  0.16012994     0.18200
N822        N  0.68317714  0.62099506  0.16601833    -0.88500
H823        H  0.57558175  0.67533080  0.17020530     0.35600
H824        H  0.60221108  0.70069784  0.15476384     0.40700
H825        H  0.67032968  0.59948178  0.15801295     0.40300
H826        H  0.68408280  0.61091348  0.17744876     0.35200
C827        C  0.43311434  0.69982395  0.59939331    -0.26500
C828        C  0.40829050  0.71145336  0.59656229    -0.14600
C829        C  0.41790157  0.74077599  0.58574322     0.36000
C830        C  0.45142881  0.75715623  0.57772438    -0.26000
C831        C  0.47573708  0.74465105  0.58000024    -0.15200
C832        C  0.46674482  0.71606586  0.59122636     0.37100
N833        N  0.49189147  0.70393534  0.59445373    -0.89500
H834        H  0.42605007  0.67776155  0.60791988     0.18200
H835        H  0.45804313  0.77924544  0.56928728     0.18200
N836        N  0.39465898  0.75520379  0.58296157    -0.88500
H837        H  0.48105317  0.68263988  0.60293681     0.35600
H838        H  0.51462183  0.72521638  0.59977800     0.40700
H839        H  0.38866908  0.76226082  0.59413604     0.40300
H840        H  0.37078490  0.73542244  0.57777445     0.35200
C841        C  0.74207740  0.02599064  0.49764295    -0.26500
C842        C  0.72128948  0.04163617  0.49313433    -0.14600
C843        C  0.68326443  0.02057807  0.49467254     0.36000
C844        C  0.66705076  0.98483416  0.50056459    -0.26000
C845        C  0.68788438  0.96920423  0.50476290    -0.15200
C846        C  0.72592579  0.99023690  0.50329933     0.37100
N847        N  0.74899308  0.97654401  0.50796551    -0.89500
H848        H  0.77125817  0.04145465  0.49661009     0.18200
H849        H  0.63787220  0.96907043  0.50173718     0.18200
N850        N  0.66087102  0.03541641  0.49066444    -0.88500
H851        H  0.74418005  0.95523297  0.50040872     0.35600
H852        H  0.74280663  0.96695688  0.51992135     0.40700
H853        H  0.64577023  0.03368362  0.50099307     0.40300
H854        H  0.64289130  0.01947299  0.48171861     0.35200
C855        C  0.26423819  0.57747987  0.59538863    -0.26500
C856        C  0.30152214  0.60189285  0.59445709    -0.14600
C857        C  0.32320669  0.59427574  0.58417008     0.36000
C858        C  0.30717854  0.56318125  0.57478083    -0.26000
C859        C  0.26967206  0.53908731  0.57532537    -0.15200
C860        C  0.24815389  0.54627282  0.58595153     0.37100
N861        N  0.21011581  0.52164783  0.58753912    -0.89500
H862        H  0.24742407  0.58280603  0.60341789     0.18200
H863        H  0.32431321  0.55820737  0.56681859     0.18200
N864        N  0.36169720  0.61693823  0.58337645    -0.88500
H865        H  0.19665878  0.53564517  0.58469000     0.35600
H866        H  0.20434101  0.51307606  0.59965930     0.40700
H867        H  0.37182670  0.61969162  0.59511182     0.40300
H868        H  0.36805675  0.64229511  0.57885318     0.35200
C869        C  0.02920693  0.30320925  0.49639372    -0.26500
C870        C  0.04602600  0.34016974  0.49960226    -0.14600
C871        C  0.02605995  0.35791693  0.49765100     0.36000
C872        C  0.98954893  0.33822331  0.49304465    -0.26000
C873        C  0.97257474  0.30099959  0.49019081    -0.15200
C874        C  0.99308603  0.28369443  0.49158271     0.37100
N875        N  0.97783278  0.24649062  0.48757698    -0.89500
H876        H  0.04411281  0.28910551  0.49765578     0.18200
H877        H  0.97441427  0.35209919  0.49178499     0.18200
N878        N  0.04299597  0.39605745  0.49979475    -0.88500
H879        H  0.97974456  0.23274344  0.49771622     0.35600
H880        H  0.99343203  0.24476558  0.47820017     0.40700
H881        H  0.02857954  0.40076268  0.50876427     0.40300
H882        H  0.04095003  0.40769276  0.48893636     0.35200
C883        C  0.33673543  0.35587231  0.50592709    -0.26500
C884        C  0.29878595  0.33636187  0.50536528    -0.14600
C885        C  0.28111039  0.29966668  0.50096327     0.36000
C886        C  0.30175729  0.28392801  0.49669300    -0.26000
C887        C  0.33962531  0.30360455  0.49699428    -0.15200
C888        C  0.35724751  0.33995939  0.50184286     0.37100
N889        N  0.39570477  0.36100347  0.50335326    -0.89500
H890        H  0.35071059  0.38387245  0.50945821     0.18200
H891        H  0.28810839  0.25589969  0.49319168     0.18200
N892        N  0.24234176  0.27810259  0.50128356    -0.88500
H893        H  0.40762711  0.36431789  0.49192707     0.35600
H894        H  0.40419578  0.34714484  0.51099810     0.40700
H895        H  0.23379655  0.27605140  0.51333837     0.40300
H896        H  0.23376938  0.25181362  0.49755407     0.35200
C897        C  0.68098699  0.67387008  0.48354868    -0.26500
C898        C  0.69551422  0.66271132  0.49605746    -0.14600
C899        C  0.69094238  0.66982242  0.51230488     0.36000
C900        C  0.67322018  0.68915128  0.51563255    -0.26000
C901        C  0.66010271  0.70164776  0.50307938    -0.15200
C902        C  0.66355493  0.69333753  0.48687159     0.37100
N903        N  0.64879939  0.70341913  0.47360553    -0.89500
H904        H  0.68398094  0.66820832  0.47104765     0.18200
H905        H  0.67016729  0.69505165  0.52808733     0.18200
N906        N  0.70398183  0.65711080  0.52536652    -0.88500
H907        H  0.66149477  0.73148502  0.47291260     0.35600
H908        H  0.62122097  0.69294569  0.47588227     0.40700
H909        H  0.68934567  0.62889844  0.52528998     0.40300
H910        H  0.69861722  0.66473699  0.53654881     0.35200
C911        C  0.28850676  0.75549407  0.58437014    -0.26500
C912        C  0.26645299  0.73467954  0.57166791    -0.14600
C913        C  0.26097563  0.69972675  0.56952146     0.36000
C914        C  0.27733589  0.68632141  0.58007231    -0.26000
C915        C  0.29919044  0.70702960  0.59286695    -0.15200
C916        C  0.30533770  0.74253938  0.59484313     0.37100
N917        N  0.32901156  0.76672630  0.60692391    -0.89500
H918        H  0.29306505  0.78243577  0.58614898     0.18200
H919        H  0.27272622  0.65934880  0.57828496     0.18200
N920        N  0.23962153  0.67802264  0.55640389    -0.88500
H921        H  0.34902451  0.78982182  0.60086505     0.35600
H922        H  0.34284446  0.75620466  0.61311168     0.40700
H923        H  0.21856223  0.65390550  0.56130137     0.40300
H924        H  0.25582970  0.67178039  0.54922097     0.35200
C925        C  0.32359586  0.98761515  0.50275558    -0.26500
C926        C  0.28662357  0.97179379  0.50658205    -0.14600
C927        C  0.27084654  0.99393267  0.50666432     0.36000
C928        C  0.29161795  0.03035737  0.50215593    -0.26000
C929        C  0.32811549  0.04576732  0.49758575    -0.15200
C930        C  0.34457935  0.02440795  0.49838828     0.37100
N931        N  0.38262712  0.04025030  0.49513949    -0.89500
H932        H  0.33615598  0.97113452  0.50310753     0.18200
H933        H  0.27877403  0.04658206  0.50198223     0.18200
N934        N  0.23432110  0.98082213  0.51188961    -0.88500
H935        H  0.39054843  0.02097516  0.49639351     0.35600
H936        H  0.39636273  0.05952901  0.50401621     0.40700
H937        H  0.23038004  0.96837988  0.52329916     0.40300
H938        H  0.21675434  0.96217000  0.50359962     0.35200
C939        C  0.97708986  0.65683199  0.49553733    -0.26500
C940        C  0.95826017  0.67577641  0.49554724    -0.14600
C941        C  0.97735579  0.71298304  0.49898580     0.36000
C942        C  0.01418890  0.72979900  0.50300784    -0.26000
C943        C  0.03290655  0.71068071  0.50337422    -0.15200
C944        C  0.01388493  0.67367267  0.49930443     0.37100
N945        N  0.03120365  0.65264860  0.49816830    -0.89500
H946        H  0.96302631  0.62843647  0.49265475     0.18200
H947        H  0.02841014  0.75821338  0.50583221     0.18200
N948        N  0.95972910  0.73390244  0.49789557    -0.88500
H949        H  0.03881846  0.64904961  0.50972601     0.35600
H950        H  0.05402073  0.66624913  0.49064765     0.40700
H951        H  0.95261677  0.73395460  0.48579736     0.40300
H952        H  0.97759807  0.76083921  0.50078060     0.35200
C953        C  0.69628425  0.43646995  0.39924431    -0.26500
C954        C  0.70898025  0.41215974  0.40082711    -0.14600
C955        C  0.73711112  0.42003584  0.41186225     0.36000
C956        C  0.75062505  0.45074268  0.42149339    -0.26000
C957        C  0.73705658  0.47446281  0.42041041    -0.15200
C958        C  0.71016423  0.46752796  0.40881885     0.37100
N959        N  0.69744686  0.49232670  0.40639799    -0.89500
H960        H  0.67509426  0.43107122  0.39067409     0.18200
H961        H  0.77157007  0.45564003  0.43010630     0.18200
N962        N  0.75340323  0.39805457  0.41320571    -0.88500
H963        H  0.66947826  0.47839504  0.40837622     0.35600
H964        H  0.70242712  0.50119806  0.39429544     0.40700
H965        H  0.76221687  0.39573567  0.40167231     0.40300
H966        H  0.73419402  0.37248453  0.41752269     0.35200
C967        C  0.74149787  0.31280066  0.39988619    -0.26500
C968        C  0.70507660  0.30246388  0.40214633    -0.14600
C969        C  0.68392165  0.27465664  0.41352898     0.36000
C970        C  0.70002330  0.25938337  0.42299132    -0.26000
C971        C  0.73695891  0.27100798  0.42133648    -0.15200
C972        C  0.75752251  0.29723281  0.40928742     0.37100
N973        N  0.79438576  0.30738421  0.40618602    -0.89500
H974        H  0.75769501  0.33328489  0.39083944     0.18200
H975        H  0.68357610  0.23868387  0.43190266     0.18200
N976        N  0.64583486  0.26047319  0.41538363    -0.88500
H977        H  0.81036434  0.33524804  0.40767474     0.35600
H978        H  0.79671209  0.30176675  0.39408751     0.40700
H979        H  0.63382196  0.25246890  0.40400163     0.40300
H980        H  0.64141427  0.28058103  0.41975304     0.35200
C981        C  0.56639767  0.30950448  0.42589554    -0.26500
C982        C  0.53812531  0.27428905  0.42301401    -0.14600
C983        C  0.54084453  0.25545492  0.40964887     0.36000
C984        C  0.57231543  0.27167148  0.39992175    -0.26000
C985        C  0.60071175  0.30659574  0.40301915    -0.15200
C986        C  0.59742587  0.32582078  0.41596738     0.37100
N987        N  0.62504670  0.36230572  0.41878693    -0.89500
H988        H  0.56456907  0.32448983  0.43596905     0.18200
H989        H  0.57477166  0.25694974  0.38988827     0.18200
N990        N  0.51136829  0.22040842  0.40572036    -0.88500
H991        H  0.63438162  0.36374963  0.43060275     0.35600
H992        H  0.61344610  0.37864488  0.41797443     0.40700
H993        H  0.51783526  0.21025448  0.39559097     0.40300
H994        H  0.48955767  0.22355064  0.40241132     0.35200
C995        C  0.75505169  0.38750887  0.26547961    -0.26500
C996        C  0.72686346  0.35312848  0.26126636    -0.14600
C997        C  0.73167813  0.33638385  0.24763971     0.36000
C998        C  0.76400481  0.35410720  0.23854196    -0.26000
C999        C  0.79200297  0.38863903  0.24260808    -0.15200
C1000       C  0.78729651  0.40535072  0.25637517     0.37100
N1001       N  0.81511889  0.43970520  0.26184754    -0.89500
H1002       H  0.75189867  0.40092177  0.27587493     0.18200
H1003       H  0.76714457  0.34065460  0.22815795     0.18200
N1004       N  0.70436693  0.30090001  0.24320159    -0.88500
H1005       H  0.81938000  0.45939212  0.25317038     0.35600
H1006       H  0.83889832  0.43881879  0.26328751     0.40700
H1007       H  0.71577296  0.28431116  0.24336056     0.40300
H1008       H  0.69666240  0.30214021  0.23132091     0.35200
C1009       C  0.64097993  0.22947915  0.25990831    -0.26500
C1010       C  0.61917373  0.24385125  0.26406410    -0.14600
C1011       C  0.58249572  0.22546032  0.25956700     0.36000
C1012       C  0.56922901  0.19431674  0.25023994    -0.26000
C1013       C  0.59139314  0.18060207  0.24516064    -0.15200
C1014       C  0.62789407  0.19847333  0.25036467     0.37100
N1015       N  0.65207260  0.18600101  0.24580497    -0.89500
H1016       H  0.66876879  0.24309162  0.26387644     0.18200
H1017       H  0.54101230  0.18085083  0.24702500     0.18200
N1018       N  0.55788928  0.23749695  0.26412040    -0.88500
H1019       H  0.67692907  0.20086409  0.25139081     0.35600
H1020       H  0.65702996  0.19086326  0.23326451     0.40700
H1021       H  0.57041488  0.26065602  0.27106056     0.40300
H1022       H  0.53778055  0.21734966  0.27154958     0.35200
C1023       C  0.62340155  0.39458152  0.24005696    -0.26500
C1024       C  0.58620772  0.38213247  0.24145821    -0.14600
C1025       C  0.56521560  0.35393174  0.25273638     0.36000
C1026       C  0.58184847  0.33874374  0.26209630    -0.26000
C1027       C  0.61886373  0.35091784  0.26040072    -0.15200
C1028       C  0.63978652  0.37932530  0.24928002     0.37100
N1029       N  0.67795563  0.39406046  0.24739461    -0.89500
H1030       H  0.64004161  0.41612204  0.23152659     0.18200
H1031       H  0.56588792  0.31736315  0.27082094     0.18200
N1032       N  0.52735935  0.34124164  0.25493362    -0.88500
H1033       H  0.68268360  0.37419602  0.24288249     0.35600
H1034       H  0.68997126  0.40194809  0.25875395     0.40700
H1035       H  0.52496706  0.36237047  0.25976744     0.40300
H1036       H  0.51584812  0.32006129  0.26345179     0.35200
C1037       C  0.64530986  0.29450524  0.32532434    -0.26500
C1038       C  0.65758632  0.32424994  0.31454767    -0.14600
C1039       C  0.67405039  0.35912874  0.32160764     0.36000
C1040       C  0.67822924  0.36296291  0.33847666    -0.26000
C1041       C  0.66635999  0.33323064  0.34920704    -0.15200
C1042       C  0.64915982  0.29827932  0.34217558     0.37100
N1043       N  0.63494852  0.26542915  0.35158349    -0.89500
H1044       H  0.63280659  0.26736665  0.32099934     0.18200
H1045       H  0.69047216  0.39001900  0.34293614     0.18200
N1046       N  0.68694586  0.39177871  0.31219420    -0.88500
H1047       H  0.61573341  0.26338050  0.35993288     0.35600
H1048       H  0.65569829  0.26390159  0.35745071     0.40700
H1049       H  0.66537314  0.39217335  0.30650544     0.40300
H1050       H  0.70600569  0.39435241  0.30365228     0.35200
loop_ 
_geom_bond_atom_site_label_1 
_geom_bond_atom_site_label_2 
_geom_bond_distance 
_geom_bond_site_symmetry_2 
_ccdc_geom_bond_type 
C1            C2   1.542       .  S
C1            C7   1.554       .  S
C1            C5   1.541       .  S
C1         C1038   1.552       .  S
C2            H9   1.086       .  S
C2            C3   1.367       .  D
C3            C4   1.540       .  S
C3          C996   1.496       .  S
C4            C8   1.536       .  S
C4            C6   1.537       .  S
C4           H10   1.109       .  S
C5           H11   1.085       .  S
C5            C6   1.365       .  D
C6         C1027   1.485       .  S
C7           H12   1.080       .  S
C7            C8   1.364       .  D
C8         C1010   1.482       .  S
C13          C14   1.560       .  S
C13          C19   1.538       .  S
C13          C17   1.541       .  S
C13        C1041   1.550       .  S
C14          H21   1.081       .  S
C14          C15   1.373       .  D
C15          C16   1.536       .  S
C15         C954   1.492       .  S
C16          C20   1.533       .  S
C16          C18   1.534       .  S
C16          H22   1.109       .  S
C17          H23   1.085       .  S
C17          C18   1.363       .  D
C18         C968   1.484       .  S
C19          H24   1.086       .  S
C19          C20   1.362       .  D
C20         C985   1.482       .  S
N25          N26   1.322       .  A
N25          C29   1.347       .  A
N25         Cu33   2.084       .  S
N26          C27   1.345       .  A
N26         Cu32   2.080       .  S
C27          C28   1.387       .  A
C27          H30   1.080       .  S
C28          C29   1.387       .  A
C28         C926   1.487       .  S
C29          H31   1.082       .  S
Cu32         N35   2.080       .  S
Cu33         N43   2.085       .  S
Cu34         N36   2.083       .  S
Cu34         N42   2.084       .  S
N35          N36   1.321       .  A
N35          C39   1.345       .  A
N36          C37   1.347       .  A
C37          C38   1.391       .  A
C37          H40   1.079       .  S
C38          C39   1.389       .  A
C38         C943   1.494       .  S
C39          H41   1.082       .  S
N42          N43   1.323       .  A
N42          C46   1.347       .  A
N43          C44   1.346       .  A
C44          C45   1.388       .  A
C44          H47   1.082       .  S
C45          C46   1.387       .  A
C45         C912   1.489       .  S
C46          H48   1.081       .  S
N49          N50   1.322       .  A
N49          C53   1.346       .  A
N49         Cu57   2.085       .  S
N50          C51   1.348       .  A
N50         Cu56   2.084       .  S
C51          C52   1.389       .  A
C51          H54   1.081       .  S
C52          C53   1.387       .  A
C52         C940   1.491       .  S
C53          H55   1.082       .  S
Cu56         N59   2.083       .  S
Cu57         N67   2.086       .  S
Cu58         N60   2.084       .  S
Cu58         N66   2.084       .  S
N59          N60   1.323       .  A
N59          C63   1.346       .  A
N60          C61   1.347       .  A
C61          C62   1.386       .  A
C61          H64   1.082       .  S
C62          C63   1.385       .  A
C62         C898   1.484       .  S
C63          H65   1.082       .  S
N66          N67   1.322       .  A
N66          C70   1.347       .  A
N67          C68   1.347       .  A
C68          C69   1.390       .  A
C68          H71   1.082       .  S
C69          C70   1.390       .  A
C69         C957   1.495       .  S
C70          H72   1.081       .  S
N73          N74   1.321       .  A
N73          C77   1.347       .  A
N73         Cu81   2.086       .  S
N74          C75   1.342       .  A
N74         Cu80   2.058       .  S
C75          C76   1.383       .  A
C75          H78   1.082       .  S
C76          C77   1.390       .  A
C76         C929   1.485       .  S
C77          H79   1.081       .  S
Cu80         N83   2.057       .  S
Cu81         N91   2.086       .  S
Cu82         N84   2.071       .  S
Cu82         N90   2.072       .  S
N83          N84   1.320       .  A
N83          C87   1.341       .  A
N84          C85   1.346       .  A
C85          C86   1.387       .  A
C85          H88   1.081       .  S
C86          C87   1.383       .  A
C86         C887   1.479       .  S
C87          H89   1.082       .  S
N90          N91   1.323       .  A
N90          C94   1.343       .  A
N91          C92   1.346       .  A
C92          C93   1.388       .  A
C92          H95   1.082       .  S
C93          C94   1.383       .  A
C93         C982   1.484       .  S
C94          H96   1.082       .  S
N97          N98   1.321       .  A
N97         C101   1.346       .  A
N97        Cu105   2.077       .  S
N98          C99   1.343       .  A
N98        Cu104   2.069       .  S
C99         C100   1.386       .  A
C99         H102   1.081       .  S
C100        C101   1.387       .  A
C100        C884   1.486       .  S
C101        H103   1.082       .  S
Cu104       N107   2.069       .  S
Cu105       N115   2.078       .  S
Cu106       N108   2.082       .  S
Cu106       N114   2.082       .  S
N107        N108   1.321       .  A
N107        C111   1.343       .  A
N108        C109   1.348       .  A
C109        C110   1.389       .  A
C109        H112   1.081       .  S
C110        C111   1.386       .  A
C110        C870   1.487       .  S
C111        H113   1.082       .  S
N114        N115   1.322       .  A
N114        C118   1.345       .  A
N115        C116   1.345       .  A
C116        C117   1.388       .  A
C116        H119   1.082       .  S
C117        C118   1.388       .  A
C117        C859   1.491       .  S
C118        H120   1.081       .  S
N121        N122   1.320       .  A
N121        C125   1.350       .  A
N121       Cu129   2.083       .  S
N122        C123   1.342       .  A
N122       Cu128   2.070       .  S
C123        C124   1.386       .  A
C123        H126   1.081       .  S
C124        C125   1.390       .  A
C124        C873   1.488       .  S
C125        H127   1.082       .  S
Cu128       N131   2.070       .  S
Cu129       N139   2.084       .  S
Cu130       N132   2.084       .  S
Cu130       N138   2.085       .  S
N131        N132   1.320       .  A
N131        C135   1.343       .  A
N132        C133   1.348       .  A
C133        C134   1.392       .  A
C133        H136   1.081       .  S
C134        C135   1.387       .  A
C134        C842   1.493       .  S
C135        H137   1.082       .  S
N138        N139   1.324       .  A
N138        C142   1.347       .  A
N139        C140   1.345       .  A
C140        C141   1.386       .  A
C140        H143   1.081       .  S
C141        C142   1.387       .  A
C141        C971   1.487       .  S
C142        H144   1.082       .  S
N145        N146   1.321       .  A
N145        C149   1.345       .  A
N145       Cu153   2.074       .  S
N146        C147   1.346       .  A
N146       Cu152   2.075       .  S
C147        C148   1.385       .  A
C147        H150   1.081       .  S
C148        C149   1.385       .  A
C148        C901   1.480       .  S
C149        H151   1.082       .  S
Cu152       N155   2.075       .  S
Cu153       N163   2.074       .  S
Cu154       N156   2.089       .  S
Cu154       N162   2.089       .  S
N155        N156   1.323       .  A
N155        C159   1.345       .  A
N156        C157   1.348       .  A
C157        C158   1.386       .  A
C157        H160   1.082       .  S
C158        C159   1.383       .  A
C158        C845   1.482       .  S
C159        H161   1.081       .  S
N162        N163   1.323       .  A
N162        C166   1.348       .  A
N163        C164   1.344       .  A
C164        C165   1.384       .  A
C164        H167   1.082       .  S
C165        C166   1.389       .  A
C165        C831   1.486       .  S
C166        H168   1.082       .  S
N169        N170   1.322       .  A
N169        C173   1.348       .  A
N169       Cu177   2.074       .  S
N170        C171   1.345       .  A
N170       Cu176   2.089       .  S
C171        C172   1.387       .  A
C171        H174   1.082       .  S
C172        C173   1.386       .  A
C172        C814   1.486       .  S
C173        H175   1.081       .  S
Cu176       N179   2.090       .  S
Cu177       N187   2.075       .  S
Cu178       N180   2.083       .  S
Cu178       N186   2.083       .  S
N179        N180   1.323       .  A
N179        C183   1.348       .  A
N180        C181   1.346       .  A
C181        C182   1.388       .  A
C181        H184   1.081       .  S
C182        C183   1.389       .  A
C182        C803   1.492       .  S
C183        H185   1.082       .  S
N186        N187   1.322       .  A
N186        C190   1.347       .  A
N187        C188   1.343       .  A
C188        C189   1.387       .  A
C188        H191   1.082       .  S
C189        C190   1.390       .  A
C189       C1024   1.491       .  S
C190        H192   1.081       .  S
N193        N194   1.322       .  A
N193        C197   1.347       .  A
N193       Cu201   2.081       .  S
N194        C195   1.343       .  A
N194       Cu200   2.071       .  S
C195        C196   1.385       .  A
C195        H198   1.081   1_655  S
C196        C197   1.387       .  A
C196        C775   1.485       .  S
C197        H199   1.082       .  S
Cu200       N203   2.072       .  S
Cu201       N211   2.082       .  S
Cu202       N204   2.089       .  S
Cu202       N210   2.089       .  S
N203        N204   1.322       .  A
N203        C207   1.346       .  A
N204        C205   1.347       .  A
C205        C206   1.385       .  A
C205        H208   1.082       .  S
C206        C207   1.384       .  A
C206        C789   1.481   1_655  S
C207        H209   1.081   1_655  S
N210        N211   1.323       .  A
N210        C214   1.348       .  A
N211        C212   1.346       .  A
C212        C213   1.387       .  A
C212        H215   1.082       .  S
C213        C214   1.389       .  A
C213        C999   1.491       .  S
C214        H216   1.080       .  S
N217        N218   1.322       .  A
N217        C221   1.345       .  A
N217       Cu225   2.074       .  S
N218        C219   1.345       .  A
N218       Cu224   2.082       .  S
C219        C220   1.387       .  A
C219        H222   1.082       .  S
C220        C221   1.386       .  A
C220        C772   1.484       .  S
C221        H223   1.080       .  S
Cu224       N227   2.082       .  S
Cu225       N235   2.074       .  S
Cu226       N228   2.079       .  S
Cu226       N234   2.078       .  S
N227        N228   1.322       .  A
N227        C231   1.347       .  A
N228        C229   1.346       .  A
C229        C230   1.385       .  A
C229        H232   1.081       .  S
C230        C231   1.385       .  A
C230        C800   1.483       .  S
C231        H233   1.082       .  S
N234        N235   1.320       .  A
N234        C238   1.344       .  A
N235        C236   1.345       .  A
C236        C237   1.390       .  A
C236        H239   1.081       .  S
C237        C238   1.391       .  A
C237        C761   1.495       .  S
C238        H240   1.080       .  S
N241        N242   1.321       .  A
N241        C245   1.345       .  A
N241       Cu249   2.071       .  S
N242        C243   1.343   1_545  A
N242       Cu248   2.065       .  S
C243        C244   1.385       .  A
C243        H246   1.082       .  S
C244        C245   1.387   1_565  A
C244        C733   1.483       .  S
C245        H247   1.081       .  S
Cu248       N251   2.066       .  S
Cu249       N259   2.072       .  S
Cu250       N252   2.096       .  S
Cu250       N258   2.095       .  S
N251        N252   1.321       .  A
N251        C255   1.344   1_545  A
N252        C253   1.349       .  A
C253        C254   1.392   1_545  A
C253        H256   1.082       .  S
C254        C255   1.386       .  A
C254        C747   1.493       .  S
C255        H257   1.081       .  S
N258        N259   1.320       .  A
N258        C262   1.345       .  A
N259        C260   1.345       .  A
C260        C261   1.393       .  A
C260        H263   1.078       .  S
C261        C262   1.396       .  A
C261       C1013   1.505       .  S
C262        H264   1.081       .  S
N265        N266   1.323       .  A
N265        C269   1.347       .  A
N265       Cu273   2.080       .  S
N266        C267   1.344       .  A
N266       Cu272   2.076       .  S
C267        C268   1.382       .  A
C267        H270   1.082       .  S
C268        C269   1.385       .  A
C268        C730   1.477       .  S
C269        H271   1.082       .  S
Cu272       N275   2.077       .  S
Cu273       N283   2.080       .  S
Cu274       N276   2.079       .  S
Cu274       N282   2.080       .  S
N275        N276   1.321       .  A
N275        C279   1.344       .  A
N276        C277   1.347       .  A
C277        C278   1.388       .  A
C277        H280   1.082       .  S
C278        C279   1.388       .  A
C278        C817   1.490       .  S
C279        H281   1.081       .  S
N282        N283   1.323       .  A
N282        C286   1.345       .  A
N283        C284   1.346       .  A
C284        C285   1.387       .  A
C284        H287   1.082       .  S
C285        C286   1.385       .  A
C285        C716   1.485       .  S
C286        H288   1.082       .  S
N289        N290   1.322       .  A
N289        C293   1.353       .  A
N289       Cu297   2.113       .  S
N290        C291   1.343       .  A
N290       Cu296   2.069       .  S
C291        C292   1.384       .  A
C291        H294   1.082       .  S
C292        C293   1.397       .  A
C292        C744   1.496       .  S
C293        H295   1.080       .  S
Cu296       N299   2.069       .  S
Cu297       N307   2.113       .  S
Cu298       N300   2.092       .  S
Cu298       N306   2.094       .  S
N299        N300   1.321       .  A
N299        C303   1.344       .  A
N300        C301   1.349       .  A
C301        C302   1.393       .  A
C301        H304   1.081       .  S
C302        C303   1.387       .  A
C302        C786   1.494       .  S
C303        H305   1.082       .  S
N306        N307   1.325       .  A
N306        C310   1.350       .  A
N307        C308   1.349       .  A
C308        C309   1.392       .  A
C308        H311   1.081       .  S
C309        C310   1.388       .  A
C309        C702   1.498       .  S
C310        H312   1.082       .  S
C313        C314   1.555       .  S
C313        C319   1.547   1_655  S
C313        C317   1.540   1_665  S
C313        C691   1.550   1_565  S
C314        H321   1.079       .  S
C314        C315   1.367       .  D
C315        C316   1.536       .  S
C315        C719   1.488       .  S
C316        C320   1.536   1_655  S
C316        C318   1.532   1_665  S
C316        H322   1.110       .  S
C317        H323   1.085       .  S
C317        C318   1.361       .  D
C318        C758   1.478       .  S
C319        H324   1.085       .  S
C319        C320   1.368       .  D
C320        C705   1.492       .  S
C325        C326   1.540   1_445  S
C325        C331   1.540   1_455  S
C325        C329   1.557       .  S
C325        C688   1.547       .  S
C326        H333   1.086       .  S
C326        C327   1.362       .  D
C327        C328   1.529   1_665  S
C327        C660   1.477       .  S
C328        C332   1.530   1_455  S
C328        C330   1.531       .  S
C328        H334   1.112       .  S
C329        H335   1.080       .  S
C329        C330   1.371       .  D
C330        C646   1.485       .  S
C331        H336   1.084       .  S
C331        C332   1.363       .  D
C332        C674   1.477       .  S
C337        C338   1.541       .  S
C337        C343   1.555       .  S
C337        C341   1.542       .  S
C337        C632   1.551       .  S
C338        H345   1.085       .  S
C338        C339   1.366       .  D
C339        C340   1.537       .  S
C339        C856   1.485       .  S
C340        C344   1.536       .  S
C340        C342   1.534       .  S
C340        H346   1.110       .  S
C341        H347   1.086       .  S
C341        C342   1.363       .  D
C342        C828   1.485       .  S
C343        H348   1.080       .  S
C343        C344   1.369       .  D
C344        C915   1.491       .  S
C349        C350   1.547       .  S
C349        C355   1.541       .  S
C349        C353   1.552       .  S
C349        C635   1.553       .  S
C350        H357   1.084       .  S
C350        C351   1.369       .  D
C351        C352   1.532       .  S
C351        C593   1.486       .  S
C352        C356   1.529       .  S
C352        C354   1.532       .  S
C352        H358   1.111       .  S
C353        H359   1.079       .  S
C353        C354   1.365       .  D
C354        C618   1.482       .  S
C355        H360   1.086       .  S
C355        C356   1.365       .  D
C356        C604   1.480       .  S
N361        N362   1.322       .  A
N361        C365   1.346       .  A
N361       Cu369   2.083       .  S
N362        C363   1.347       .  A
N362       Cu368   2.085       .  S
C363        C364   1.388       .  A
C363        H366   1.081   1_565  S
C364        C365   1.387       .  A
C364        C565   1.490   1_565  S
C365        H367   1.082       .  S
Cu368       N371   2.085       .  S
Cu369       N379   2.084       .  S
Cu370       N372   2.090       .  S
Cu370       N378   2.090       .  S
N371        N372   1.322       .  A
N371        C375   1.346   1_565  A
N372        C373   1.349       .  A
C373        C374   1.389       .  A
C373        H376   1.082       .  S
C374        C375   1.388   1_565  A
C374        C576   1.493   1_565  S
C375        H377   1.080       .  S
N378        N379   1.323       .  A
N378        C382   1.347       .  A
N379        C380   1.347       .  A
C380        C381   1.387       .  A
C380        H383   1.082       .  S
C381        C382   1.388       .  A
C381        C590   1.490       .  S
C382        H384   1.082       .  S
N385        N386   1.322       .  A
N385        C389   1.347       .  A
N385       Cu393   2.078       .  S
N386        C387   1.343       .  A
N386       Cu392   2.076       .  S
C387        C388   1.385       .  A
C387        H390   1.082       .  S
C388        C389   1.388       .  A
C388        C548   1.485       .  S
C389        H391   1.081       .  S
Cu392       N395   2.076       .  S
Cu393       N403   2.078       .  S
Cu394       N396   2.093       .  S
Cu394       N402   2.092       .  S
N395        N396   1.321       .  A
N395        C399   1.345       .  A
N396        C397   1.349       .  A
C397        C398   1.392       .  A
C397        H400   1.081       .  S
C398        C399   1.388       .  A
C398        C579   1.494       .  S
C399        H401   1.082       .  S
N402        N403   1.324       .  A
N402        C406   1.346       .  A
N403        C404   1.347       .  A
C404        C405   1.386       .  A
C404        H407   1.082       .  S
C405        C406   1.386       .  A
C405        C649   1.486       .  S
C406        H408   1.082       .  S
N409        N410   1.319       .  A
N409        C413   1.346       .  A
N409       Cu417   2.076       .  S
N410        C411   1.344   1_455  A
N410       Cu416   2.066       .  S
C411        C412   1.386   1_655  A
C411        H414   1.080       .  S
C412        C413   1.388       .  A
C412        C520   1.486   1_455  S
C413        H415   1.082       .  S
Cu416       N419   2.066       .  S
Cu417       N427   2.076       .  S
Cu418       N420   2.079       .  S
Cu418       N426   2.080       .  S
N419        N420   1.320       .  A
N419        C423   1.340       .  A
N420        C421   1.347       .  A
C421        C422   1.392       .  A
C421        H424   1.080       .  S
C422        C423   1.386       .  A
C422        C537   1.491       .  S
C423        H425   1.081   1_455  S
N426        N427   1.323       .  A
N426        C430   1.345       .  A
N427        C428   1.345       .  A
C428        C429   1.384       .  A
C428        H431   1.080       .  S
C429        C430   1.385       .  A
C429        C607   1.482       .  S
C430        H432   1.082       .  S
N433        N434   1.322       .  A
N433        C437   1.346       .  A
N433       Cu441   2.077       .  S
N434        C435   1.344       .  A
N434       Cu440   2.068       .  S
C435        C436   1.382       .  A
C435        H438   1.082       .  S
C436        C437   1.386       .  A
C436        C506   1.479       .  S
C437        H439   1.082       .  S
Cu440       N443   2.067       .  S
Cu441       N451   2.078       .  S
Cu442       N444   2.068       .  S
Cu442       N450   2.068       .  S
N443        N444   1.321       .  A
N443        C447   1.342       .  A
N444        C445   1.346       .  A
C445        C446   1.384       .  A
C445        H448   1.082       .  S
C446        C447   1.383       .  A
C446        C534   1.477       .  S
C447        H449   1.082       .  S
N450        N451   1.322       .  A
N450        C454   1.344       .  A
N451        C452   1.343       .  A
C452        C453   1.387       .  A
C452        H455   1.082       .  S
C453        C454   1.386       .  A
C453        C663   1.485       .  S
C454        H456   1.078       .  S
N457        N458   1.321       .  A
N457        C461   1.347       .  A
N457       Cu465   2.078       .  S
N458        C459   1.345       .  A
N458       Cu464   2.077       .  S
C459        C460   1.388       .  A
C459        H462   1.082       .  S
C460        C461   1.388       .  A
C460        C523   1.489       .  S
C461        H463   1.081       .  S
Cu464       N467   2.078       .  S
Cu465       N475   2.078       .  S
Cu466       N468   2.076       .  S
Cu466       N474   2.076       .  S
N467        N468   1.323       .  A
N467        C471   1.345       .  A
N468        C469   1.347       .  A
C469        C470   1.383       .  A
C469        H472   1.082       .  S
C470        C471   1.382       .  A
C470        C562   1.477       .  S
C471        H473   1.082       .  S
N474        N475   1.322       .  A
N474        C478   1.345       .  A
N475        C476   1.345       .  A
C476        C477   1.385       .  A
C476        H479   1.082       .  S
C477        C478   1.387       .  A
C477        C677   1.484       .  S
C478        H480   1.081       .  S
N481        N482   1.322       .  A
N481        C485   1.346       .  A
N481       Cu489   2.068       .  S
N482        C483   1.345       .  A
N482       Cu488   2.081       .  S
C483        C484   1.384       .  A
C483        H486   1.082       .  S
C484        C485   1.383       .  A
C484        C509   1.478       .  S
C485        H487   1.081       .  S
Cu488       N491   2.081       .  S
Cu489       N499   2.068       .  S
Cu490       N492   2.066       .  S
Cu490       N498   2.066       .  S
N491        N492   1.321       .  A
N491        C495   1.344       .  A
N492        C493   1.346       .  A
C493        C494   1.385       .  A
C493        H496   1.082       .  S
C494        C495   1.387       .  A
C494        C551   1.483       .  S
C495        H497   1.080       .  S
N498        N499   1.322       .  A
N498        C502   1.343       .  A
N499        C500   1.344       .  A
C500        C501   1.383       .  A
C500        H503   1.081       .  S
C501        C502   1.381       .  A
C501        C621   1.473       .  S
C502        H504   1.082       .  S
C505        C506   1.404       .  A
C505        C510   1.401       .  A
C505        H512   1.084       .  S
C506        C507   1.411       .  A
C507        C508   1.405       .  A
C507        N514   1.437       .  S
C508        C509   1.402       .  A
C508        H513   1.084       .  S
C509        C510   1.414       .  A
C510        N511   1.433       .  S
N511        H515   1.044       .  S
N511        H516   1.045       .  S
N514        H517   1.046       .  S
N514        H518   1.045       .  S
C519        C520   1.405   1_455  A
C519        C524   1.409   1_455  A
C519        H526   1.084       .  S
C520        C521   1.416       .  A
C521        C522   1.399       .  A
C521        N528   1.432       .  S
C522        C523   1.405       .  A
C522        H527   1.083       .  S
C523        C524   1.414       .  A
C524        N525   1.437   1_655  S
N525        H529   1.046       .  S
N525        H530   1.045       .  S
N528        H531   1.045       .  S
N528        H532   1.043       .  S
C533        C534   1.401   1_455  A
C533        C538   1.405       .  A
C533        H540   1.084       .  S
C534        C535   1.409       .  A
C535        C536   1.402       .  A
C535        N542   1.438       .  S
C536        C537   1.408   1_655  A
C536        H541   1.081       .  S
C537        C538   1.414       .  A
C538        N539   1.431       .  S
N539        H543   1.045       .  S
N539        H544   1.046       .  S
N542        H545   1.046       .  S
N542        H546   1.045       .  S
C547        C548   1.403       .  A
C547        C552   1.396       .  A
C547        H554   1.083       .  S
C548        C549   1.414       .  A
C549        C550   1.409       .  A
C549        N556   1.437       .  S
C550        C551   1.405       .  A
C550        H555   1.084       .  S
C551        C552   1.415       .  A
C552        N553   1.432       .  S
N553        H557   1.042       .  S
N553        H558   1.046       .  S
N556        H559   1.046       .  S
N556        H560   1.046       .  S
C561        C562   1.402       .  A
C561        C566   1.409       .  A
C561        H568   1.084       .  S
C562        C563   1.410       .  A
C563        C564   1.399       .  A
C563        N570   1.433       .  S
C564        C565   1.406       .  A
C564        H569   1.083   1_545  S
C565        C566   1.416       .  A
C566        N567   1.437       .  S
N567        H571   1.046       .  S
N567        H572   1.045   1_545  S
N570        H573   1.046       .  S
N570        H574   1.044       .  S
C575        C576   1.407       .  A
C575        C580   1.413       .  A
C575        H582   1.083   1_545  S
C576        C577   1.417       .  A
C577        C578   1.401       .  A
C577        N584   1.432       .  S
C578        C579   1.405       .  A
C578        H583   1.083       .  S
C579        C580   1.414       .  A
C580        N581   1.437   1_545  S
N581        H585   1.046       .  S
N581        H586   1.046   1_565  S
N584        H587   1.045       .  S
N584        H588   1.042       .  S
C589        C590   1.406       .  A
C589        C594   1.402       .  A
C589        H596   1.083       .  S
C590        C591   1.415       .  A
C591        C592   1.410       .  A
C591        N598   1.437       .  S
C592        C593   1.403       .  A
C592        H597   1.084       .  S
C593        C594   1.412       .  A
C594        N595   1.432       .  S
N595        H599   1.044       .  S
N595        H600   1.045       .  S
N598        H601   1.046       .  S
N598        H602   1.045       .  S
C603        C604   1.403       .  A
C603        C608   1.400       .  A
C603        H610   1.084       .  S
C604        C605   1.417       .  A
C605        C606   1.401       .  A
C605        N612   1.440       .  S
C606        C607   1.403       .  A
C606        H611   1.084       .  S
C607        C608   1.416       .  A
C608        N609   1.432       .  S
N609        H613   1.043       .  S
N609        H614   1.046       .  S
N612        H615   1.041       .  S
N612        H616   1.046       .  S
C617        C618   1.403       .  A
C617        C622   1.399       .  A
C617        H624   1.084       .  S
C618        C619   1.411       .  A
C619        C620   1.401       .  A
C619        N626   1.432       .  S
C620        C621   1.401       .  A
C620        H625   1.084       .  S
C621        C622   1.414       .  A
C622        N623   1.432       .  S
N623        H627   1.044       .  S
N623        H628   1.045       .  S
N626        H629   1.045       .  S
N626        H630   1.046       .  S
C631        C632   1.411       .  A
C631        C636   1.403       .  A
C631        H638   1.075       .  S
C632        C633   1.425       .  A
C633        C634   1.401       .  A
C633        N640   1.436       .  S
C634        C635   1.412       .  A
C634        H639   1.074       .  S
C635        C636   1.426       .  A
C636        N637   1.435       .  S
N637        H641   1.041       .  S
N637        H642   1.042       .  S
N640        H643   1.041       .  S
N640        H644   1.043       .  S
C645        C646   1.403       .  A
C645        C650   1.408       .  A
C645        H652   1.083       .  S
C646        C647   1.413       .  A
C647        C648   1.400       .  A
C647        N654   1.433       .  S
C648        C649   1.405       .  A
C648        H653   1.084       .  S
C649        C650   1.414       .  A
C650        N651   1.438       .  S
N651        H655   1.044       .  S
N651        H656   1.047       .  S
N654        H657   1.046   1_545  S
N654        H658   1.042       .  S
C659        C660   1.400       .  A
C659        C664   1.399       .  A
C659        H666   1.084   1_655  S
C660        C661   1.410       .  A
C661        C662   1.396       .  A
C661        N668   1.432       .  S
C662        C663   1.406       .  A
C662        H667   1.084       .  S
C663        C664   1.420       .  A
C664        N665   1.431   1_655  S
N665        H669   1.045   1_455  S
N665        H670   1.043       .  S
N668        H671   1.045       .  S
N668        H672   1.044       .  S
C673        C674   1.400       .  A
C673        C678   1.405       .  A
C673        H680   1.084   1_545  S
C674        C675   1.412       .  A
C675        C676   1.399       .  A
C675        N682   1.433   1_655  S
C676        C677   1.405       .  A
C676        H681   1.083       .  S
C677        C678   1.415       .  A
C678        N679   1.437       .  S
N679        H683   1.048   1_545  S
N679        H684   1.044       .  S
N682        H685   1.045       .  S
N682        H686   1.044       .  S
C687        C688   1.409       .  A
C687        C692   1.403   1_556  A
C687        H694   1.075       .  S
C688        C689   1.427   1_445  A
C689        C690   1.398   1_556  A
C689        N696   1.436       .  S
C690        C691   1.409   1_565  A
C690        H695   1.073       .  S
C691        C692   1.427   1_655  A
C692        N693   1.435       .  S
N693        H697   1.043       .  S
N693        H698   1.040       .  S
N696        H699   1.043       .  S
N696        H700   1.039       .  S
C701        C702   1.410       .  A
C701        C706   1.409       .  A
C701        H708   1.083       .  S
C702        C703   1.412       .  A
C703        C704   1.404       .  A
C703        N710   1.431       .  S
C704        C705   1.400       .  A
C704        H709   1.082   1_565  S
C705        C706   1.417       .  A
C706        N707   1.433   1_455  S
N707        H711   1.045   1_655  S
N707        H712   1.044       .  S
N710        H713   1.046       .  S
N710        H714   1.045   1_565  S
C715        C716   1.404       .  A
C715        C720   1.402       .  A
C715        H722   1.083       .  S
C716        C717   1.413       .  A
C717        C718   1.409       .  A
C717        N724   1.438       .  S
C718        C719   1.406       .  A
C718        H723   1.083       .  S
C719        C720   1.408       .  A
C720        N721   1.432       .  S
N721        H725   1.046       .  S
N721        H726   1.045       .  S
N724        H727   1.049       .  S
N724        H728   1.042       .  S
C729        C730   1.402       .  A
C729        C734   1.404       .  A
C729        H736   1.084       .  S
C730        C731   1.413       .  A
C731        C732   1.399       .  A
C731        N738   1.432       .  S
C732        C733   1.405       .  A
C732        H737   1.083       .  S
C733        C734   1.411       .  A
C734        N735   1.432       .  S
N735        H739   1.044       .  S
N735        H740   1.047       .  S
N738        H741   1.045       .  S
N738        H742   1.045       .  S
C743        C744   1.407       .  A
C743        C748   1.409       .  A
C743        H750   1.083       .  S
C744        C745   1.417       .  A
C745        C746   1.404       .  A
C745        N752   1.431   1_565  S
C746        C747   1.405       .  A
C746        H751   1.083   1_565  S
C747        C748   1.415       .  A
C748        N749   1.438       .  S
N749        H753   1.045       .  S
N749        H754   1.046       .  S
N752        H755   1.046   1_545  S
N752        H756   1.042       .  S
C757        C758   1.398       .  A
C757        C762   1.408       .  A
C757        H764   1.083       .  S
C758        C759   1.407       .  A
C759        C760   1.400       .  A
C759        N766   1.432   1_455  S
C760        C761   1.409       .  A
C760        H765   1.082       .  S
C761        C762   1.420       .  A
C762        N763   1.437       .  S
N763        H767   1.044       .  S
N763        H768   1.047       .  S
N766        H769   1.045       .  S
N766        H770   1.045       .  S
C771        C772   1.403       .  A
C771        C776   1.405       .  A
C771        H778   1.084       .  S
C772        C773   1.416   1_455  A
C773        C774   1.401       .  A
C773        N780   1.432       .  S
C774        C775   1.404       .  A
C774        H779   1.084       .  S
C775        C776   1.414   1_655  A
C776        N777   1.438       .  S
N777        H781   1.047       .  S
N777        H782   1.044       .  S
N780        H783   1.046       .  S
N780        H784   1.043       .  S
C785        C786   1.408       .  A
C785        C790   1.401       .  A
C785        H792   1.083       .  S
C786        C787   1.414   1_455  A
C787        C788   1.407       .  A
C787        N794   1.431       .  S
C788        C789   1.402   1_655  A
C788        H793   1.084       .  S
C789        C790   1.413       .  A
C790        N791   1.433       .  S
N791        H795   1.043       .  S
N791        H796   1.046       .  S
N794        H797   1.046       .  S
N794        H798   1.046       .  S
C799        C800   1.402       .  A
C799        C804   1.408       .  A
C799        H806   1.084       .  S
C800        C801   1.414       .  A
C801        C802   1.403       .  A
C801        N808   1.432       .  S
C802        C803   1.406       .  A
C802        H807   1.084       .  S
C803        C804   1.416       .  A
C804        N805   1.437       .  S
N805        H809   1.042       .  S
N805        H810   1.049       .  S
N808        H811   1.045       .  S
N808        H812   1.044       .  S
C813        C814   1.402       .  A
C813        C818   1.405       .  A
C813        H820   1.084       .  S
C814        C815   1.416       .  A
C815        C816   1.404       .  A
C815        N822   1.432       .  S
C816        C817   1.407       .  A
C816        H821   1.084       .  S
C817        C818   1.415       .  A
C818        N819   1.437       .  S
N819        H823   1.047       .  S
N819        H824   1.045       .  S
N822        H825   1.048       .  S
N822        H826   1.041       .  S
C827        C828   1.403       .  A
C827        C832   1.408       .  A
C827        H834   1.084       .  S
C828        C829   1.412       .  A
C829        C830   1.399       .  A
C829        N836   1.431       .  S
C830        C831   1.403       .  A
C830        H835   1.083       .  S
C831        C832   1.415       .  A
C832        N833   1.437       .  S
N833        H837   1.046       .  S
N833        H838   1.046       .  S
N836        H839   1.044       .  S
N836        H840   1.043       .  S
C841        C842   1.407       .  A
C841        C846   1.400   1_545  A
C841        H848   1.083       .  S
C842        C843   1.414       .  A
C843        C844   1.406   1_545  A
C843        N850   1.431       .  S
C844        C845   1.402       .  A
C844        H849   1.084       .  S
C845        C846   1.414       .  A
C846        N847   1.433       .  S
N847        H851   1.046       .  S
N847        H852   1.043       .  S
N850        H853   1.046       .  S
N850        H854   1.045       .  S
C855        C856   1.402       .  A
C855        C860   1.406       .  A
C855        H862   1.084       .  S
C856        C857   1.413       .  A
C857        C858   1.400       .  A
C857        N864   1.432       .  S
C858        C859   1.406       .  A
C858        H863   1.083       .  S
C859        C860   1.414       .  A
C860        N861   1.432       .  S
N861        H865   1.046       .  S
N861        H866   1.045       .  S
N864        H867   1.045       .  S
N864        H868   1.043       .  S
C869        C870   1.403       .  A
C869        C874   1.401   1_455  A
C869        H876   1.083       .  S
C870        C871   1.411       .  A
C871        C872   1.409   1_455  A
C871        N878   1.432       .  S
C872        C873   1.406       .  A
C872        H877   1.083       .  S
C873        C874   1.412       .  A
C874        N875   1.432       .  S
N875        H879   1.044       .  S
N875        H880   1.047       .  S
N878        H881   1.046       .  S
N878        H882   1.045       .  S
C883        C884   1.406       .  A
C883        C888   1.400       .  A
C883        H890   1.083       .  S
C884        C885   1.415       .  A
C885        C886   1.403       .  A
C885        N892   1.437       .  S
C886        C887   1.402       .  A
C886        H891   1.084       .  S
C887        C888   1.413       .  A
C888        N889   1.432       .  S
N889        H893   1.043       .  S
N889        H894   1.046       .  S
N892        H895   1.045       .  S
N892        H896   1.047       .  S
C897        C898   1.405       .  A
C897        C902   1.401       .  A
C897        H904   1.084       .  S
C898        C899   1.412       .  A
C899        C900   1.407       .  A
C899        N906   1.437       .  S
C900        C901   1.403       .  A
C900        H905   1.084       .  S
C901        C902   1.414       .  A
C902        N903   1.432       .  S
N903        H907   1.043       .  S
N903        H908   1.046       .  S
N906        H909   1.046       .  S
N906        H910   1.045       .  S
C911        C912   1.403       .  A
C911        C916   1.404       .  A
C911        H918   1.084       .  S
C912        C913   1.411       .  A
C913        C914   1.406       .  A
C913        N920   1.432       .  S
C914        C915   1.405       .  A
C914        H919   1.084       .  S
C915        C916   1.422       .  A
C916        N917   1.440       .  S
N917        H921   1.046       .  S
N917        H922   1.040       .  S
N920        H923   1.046       .  S
N920        H924   1.045       .  S
C925        C926   1.406       .  A
C925        C930   1.409   1_565  A
C925        H932   1.083       .  S
C926        C927   1.417       .  A
C927        C928   1.398   1_565  A
C927        N934   1.432       .  S
C928        C929   1.404       .  A
C928        H933   1.083       .  S
C929        C930   1.412       .  A
C930        N931   1.437       .  S
N931        H935   1.045       .  S
N931        H936   1.047       .  S
N934        H937   1.046       .  S
N934        H938   1.042       .  S
C939        C940   1.405       .  A
C939        C944   1.402   1_655  A
C939        H946   1.084       .  S
C940        C941   1.413       .  A
C941        C942   1.409   1_655  A
C941        N948   1.437       .  S
C942        C943   1.407       .  A
C942        H947   1.083       .  S
C943        C944   1.419       .  A
C944        N945   1.432       .  S
N945        H949   1.043       .  S
N945        H950   1.045       .  S
N948        H951   1.044       .  S
N948        H952   1.047       .  S
C953        C954   1.404       .  A
C953        C958   1.409       .  A
C953        H960   1.084       .  S
C954        C955   1.415       .  A
C955        C956   1.402       .  A
C955        N962   1.432       .  S
C956        C957   1.406       .  A
C956        H961   1.083       .  S
C957        C958   1.414       .  A
C958        N959   1.432       .  S
N959        H963   1.046       .  S
N959        H964   1.045       .  S
N962        H965   1.046       .  S
N962        H966   1.042       .  S
C967        C968   1.401       .  A
C967        C972   1.404       .  A
C967        H974   1.084       .  S
C968        C969   1.414       .  A
C969        C970   1.400       .  A
C969        N976   1.432       .  S
C970        C971   1.404       .  A
C970        H975   1.083       .  S
C971        C972   1.412       .  A
C972        N973   1.432       .  S
N973        H977   1.046       .  S
N973        H978   1.045       .  S
N976        H979   1.048       .  S
N976        H980   1.041       .  S
C981        C982   1.406       .  A
C981        C986   1.402       .  A
C981        H988   1.083       .  S
C982        C983   1.413       .  A
C983        C984   1.406       .  A
C983        N990   1.437       .  S
C984        C985   1.403       .  A
C984        H989   1.084       .  S
C985        C986   1.407       .  A
C986        N987   1.432       .  S
N987        H991   1.045       .  S
N987        H992   1.046       .  S
N990        H993   1.046       .  S
N990        H994   1.046       .  S
C995        C996   1.407       .  A
C995       C1000   1.403       .  A
C995       H1002   1.084       .  S
C996        C997   1.410       .  A
C997        C998   1.405       .  A
C997       N1004   1.430       .  S
C998        C999   1.405       .  A
C998       H1003   1.084       .  S
C999       C1000   1.417       .  A
C1000      N1001   1.432       .  S
N1001      H1005   1.043       .  S
N1001      H1006   1.046       .  S
N1004      H1007   1.047       .  S
N1004      H1008   1.044       .  S
C1009      C1010   1.398       .  A
C1009      C1014   1.408       .  A
C1009      H1016   1.083       .  S
C1010      C1011   1.412       .  A
C1011      C1012   1.402       .  A
C1011      N1018   1.438       .  S
C1012      C1013   1.410       .  A
C1012      H1017   1.081       .  S
C1013      C1014   1.422       .  A
C1014      N1015   1.436       .  S
N1015      H1019   1.039       .  S
N1015      H1020   1.051       .  S
N1018      H1021   1.041       .  S
N1018      H1022   1.047       .  S
C1023      C1024   1.406       .  A
C1023      C1028   1.398       .  A
C1023      H1030   1.083       .  S
C1024      C1025   1.416       .  A
C1025      C1026   1.410       .  A
C1025      N1032   1.437       .  S
C1026      C1027   1.403       .  A
C1026      H1031   1.083       .  S
C1027      C1028   1.412       .  A
C1028      N1029   1.432       .  S
N1029      H1033   1.043       .  S
N1029      H1034   1.046       .  S
N1032      H1035   1.046       .  S
N1032      H1036   1.045       .  S
C1037      C1038   1.409       .  A
C1037      C1042   1.401       .  A
C1037      H1044   1.075       .  S
C1038      C1039   1.428       .  A
C1039      C1040   1.404       .  A
C1039      N1046   1.435       .  S
C1040      C1041   1.408       .  A
C1040      H1045   1.076       .  S
C1041      C1042   1.429       .  A
C1042      N1043   1.436       .  S
N1043      H1047   1.039       .  S
N1043      H1048   1.044       .  S
N1046      H1049   1.046       .  S
N1046      H1050   1.038       .  S
