geometry optimzed in LAMMPS
_audit_creation_date              2020-11-30 
_audit_creation_method            'lammps2cif' 
_symmetry_space_group_name_H-M    'P1' 
_symmetry_Int_Tables_number       1 
_symmetry_cell_setting            triclinic 
loop_ 
_symmetry_equiv_pos_as_xyz 
  x,y,z 
_cell_length_a                    67.76373298 
_cell_length_b                    67.28409782114704 
_cell_length_c                    67.44579341051792 
_cell_angle_alpha                 89.8644207979697 
_cell_angle_beta                  90.02544297789484 
_cell_angle_gamma                 90.10321796643797 
loop_ 
_atom_site_label 
_atom_site_type_symbol 
_atom_site_fract_x 
_atom_site_fract_y 
_atom_site_fract_z 
_atom_site_charge 
N1          N  0.45855119  0.66542279  0.98679784    -0.27400
N2          N  0.44887675  0.64843188  0.98865773    -0.35200
C3          C  0.42937626  0.65198246  0.98740092     0.01000
C4          C  0.42655594  0.67219527  0.98454822     0.07000
C5          C  0.44544993  0.68018874  0.98420837    -0.06100
H6          H  0.41812801  0.64061017  0.98848523     0.07700
H7          H  0.44946067  0.69568417  0.98271701     0.08900
Cu8        Cu  0.46238884  0.62110046  0.99318773     0.44200
Cu9        Cu  0.48907635  0.66827900  0.98898901     0.42000
Cu10       Cu  0.51505832  0.62240438  0.99840766     0.43900
N11         N  0.47950723  0.59587132  0.99749777    -0.34800
N12         N  0.49889683  0.59645986  0.99948528    -0.29000
C13         C  0.50584435  0.57784521  0.00128939    -0.05100
C14         C  0.49005235  0.56488304  0.00031058     0.07100
C15         C  0.47356634  0.57679515  0.99794742     0.00900
H16         H  0.52129811  0.57405223  0.00260085     0.08500
H17         H  0.45843968  0.57196411  0.99613309     0.07600
N18         N  0.52866626  0.64978149  0.99705427    -0.36200
N19         N  0.51939117  0.66672592  0.99377790    -0.28400
C20         C  0.53258551  0.68169424  0.99477561    -0.03600
C21         C  0.55105322  0.67368632  0.99879473     0.05000
C22         C  0.54789819  0.65340803  0.00008772     0.03100
H23         H  0.52894778  0.69721814  0.99279444     0.08200
H24         H  0.55864718  0.64205743  0.00355225     0.07000
N25         N  0.46226544  0.44252889  0.98491778    -0.27400
N26         N  0.45226025  0.45929010  0.98614991    -0.35200
C27         C  0.43283580  0.45525835  0.98537400     0.01000
C28         C  0.43043461  0.43487304  0.98359707     0.07000
C29         C  0.44949089  0.42733213  0.98330095    -0.06100
H30         H  0.42138463  0.46638921  0.98629102     0.07700
H31         H  0.45385231  0.41190153  0.98258218     0.08900
Cu32       Cu  0.46568491  0.48650816  0.99022277     0.44200
Cu33       Cu  0.49278802  0.44113047  0.98661288     0.42000
Cu34       Cu  0.51933493  0.48683509  0.99666225     0.43900
N35         N  0.48213548  0.51169479  0.99587038    -0.34800
N36         N  0.50150714  0.51202006  0.99832815    -0.29000
C37         C  0.50730307  0.53099277  0.00091494    -0.05100
C38         C  0.49077712  0.54305305  0.99998362     0.07100
C39         C  0.47511735  0.53031513  0.99685085     0.00900
H40         H  0.52247418  0.53568701  0.00272030     0.08500
H41         H  0.45978741  0.53429028  0.99480844     0.07600
N42         N  0.53308355  0.45941204  0.99275414    -0.36200
N43         N  0.52326172  0.44286492  0.98896883    -0.28400
C44         C  0.53613622  0.42787632  0.98670473    -0.03600
C45         C  0.55513229  0.43521507  0.98913611     0.05000
C46         C  0.55254237  0.45532883  0.99301652     0.03100
H47         H  0.53183576  0.41273072  0.98354314     0.08200
H48         H  0.56392697  0.46632670  0.99549794     0.07000
N49         N  0.61560507  0.05454741  0.48061204    -0.27400
N50         N  0.59941698  0.05431495  0.46974496    -0.35200
C51         C  0.60439687  0.05464282  0.45045491     0.01000
C52         C  0.62483052  0.05513751  0.44904344     0.07000
C53         C  0.63136026  0.05502036  0.46857374    -0.06100
H54         H  0.59381086  0.05469063  0.43846186     0.07700
H55         H  0.64641057  0.05547673  0.47385209     0.08900
Cu56       Cu  0.57152812  0.05429306  0.48197292     0.44200
Cu57       Cu  0.61554087  0.05489513  0.51131187     0.42000
Cu58       Cu  0.56859674  0.05747624  0.53629281     0.43900
N59         N  0.54549764  0.05562078  0.49776579    -0.34800
N60         N  0.54425712  0.05687883  0.51730702    -0.29000
C61         C  0.52508208  0.05796634  0.52239648    -0.05100
C62         C  0.51384850  0.05741331  0.50524272     0.07100
C63         C  0.52726364  0.05589702  0.48994751     0.00900
H64         H  0.51975398  0.05931736  0.53744930     0.08500
H65         H  0.52407636  0.05529259  0.47424212     0.07600
N66         N  0.59558760  0.05708217  0.55121301    -0.36200
N67         N  0.61266951  0.05597338  0.54186488    -0.28400
C68         C  0.62735274  0.05560143  0.55524360    -0.03600
C69         C  0.61927044  0.05649997  0.57413471     0.05000
C70         C  0.59900476  0.05747477  0.57089963     0.03100
H71         H  0.64278753  0.05476795  0.55131139     0.08200
H72         H  0.58750513  0.05816267  0.58198071     0.07000
N73         N  0.39376719  0.06695896  0.46641062    -0.27400
N74         N  0.41094983  0.06480933  0.45740425    -0.35200
C75         C  0.40789196  0.06380027  0.43769167     0.01000
C76         C  0.38777954  0.06543295  0.43401856     0.07000
C77         C  0.37937178  0.06739971  0.45269624    -0.06100
H78         H  0.41954150  0.06213906  0.42687736     0.07700
H79         H  0.36388280  0.06882566  0.45623382     0.08900
Cu80       Cu  0.43776549  0.06313959  0.47241379     0.44200
Cu81       Cu  0.39023407  0.06867832  0.49700722     0.42000
Cu82       Cu  0.43447535  0.06468585  0.52609148     0.43900
N83         N  0.46203555  0.06129112  0.49127846    -0.34800
N84         N  0.46068359  0.06187557  0.51082714    -0.29000
C85         C  0.47881779  0.06043094  0.51876099    -0.05100
C86         C  0.49227358  0.05886456  0.50349277     0.07100
C87         C  0.48116151  0.05944160  0.48625813     0.00900
H88         H  0.48193156  0.06061263  0.53449253     0.08500
H89         H  0.48655773  0.05871314  0.47118452     0.07600
N90         N  0.40672073  0.06688586  0.53841506    -0.36200
N91         N  0.39036664  0.06826335  0.52784694    -0.28400
C92         C  0.37482831  0.06859764  0.54025920    -0.03600
C93         C  0.38178613  0.06742769  0.55959542     0.05000
C94         C  0.40210698  0.06639981  0.55777481     0.03100
H95         H  0.35961401  0.06952557  0.53549817     0.08200
H96         H  0.41279618  0.06482956  0.56958742     0.07000
O97         O  0.69276477  0.05350131  0.04227825    -0.73000
O98         O  0.69381033  0.05758415  0.98245639    -0.74000
O99         O  0.69282130  0.02555953  0.01039965    -0.62600
O100        O  0.69361251  0.08533236  0.01427198    -0.71000
O101        O  0.72628302  0.08485082  0.01643510    -0.70600
O102        O  0.72552191  0.02580842  0.00965506    -0.61800
O103        O  0.72649559  0.05884272  0.98374750    -0.74400
O104        O  0.72544949  0.05193731  0.04220096    -0.73100
Cu105      Cu  0.69204338  0.05549935  0.01233417     1.04600
Cu106      Cu  0.72701269  0.05532196  0.01301710     1.04300
C107        C  0.70912929  0.05192767  0.05162397     0.93200
C108        C  0.71050799  0.05922090  0.97374706     0.92300
C109        C  0.70921324  0.01624188  0.00925529     0.84500
C110        C  0.71006537  0.09448197  0.01615031     0.90700
N111        N  0.72567304  0.05735579  0.23190300    -0.27400
N112        N  0.74402606  0.06071975  0.22612771    -0.35200
C113        C  0.74516758  0.05914064  0.20640507     0.01000
C114        C  0.72667770  0.05460422  0.19913380     0.07000
C115        C  0.71454197  0.05371955  0.21569868    -0.06100
H116        H  0.75860127  0.06126788  0.19799620     0.07700
H117        H  0.69895048  0.05025094  0.21600238     0.08900
Cu118      Cu  0.76772956  0.06666018  0.24417509     0.44200
Cu119      Cu  0.71747559  0.05703937  0.26172619     0.42000
Cu120      Cu  0.76118615  0.06089427  0.29461675     0.43900
N121        N  0.79092357  0.06915402  0.26361777    -0.34800
N122        N  0.78865672  0.06643734  0.28281940    -0.29000
C123        C  0.80635659  0.06764447  0.29175588    -0.05100
C124        C  0.82048595  0.07135585  0.27732395     0.07100
C125        C  0.81006982  0.07223026  0.25964893     0.00900
H126        H  0.80870173  0.06575897  0.30750902     0.08500
H127        H  0.81596859  0.07414941  0.24487207     0.07600
N128        N  0.73237686  0.05819305  0.30395899    -0.36200
N129        N  0.71645841  0.05706691  0.29266724    -0.28400
C130        C  0.70044216  0.05632518  0.30452231    -0.03600
C131        C  0.70667749  0.05703619  0.32417453     0.05000
C132        C  0.72702891  0.05821195  0.32303812     0.03100
H133        H  0.68542893  0.05544062  0.29915680     0.08200
H134        H  0.73746499  0.05940806  0.33509055     0.07000
N135        N  0.77309124  0.33524207  0.00121684    -0.27400
N136        N  0.77727788  0.31753581  0.00866991    -0.35200
C137        C  0.79684270  0.31482735  0.00855122     0.01000
C138        C  0.80582292  0.33146865  0.00052996     0.07000
C139        C  0.79026211  0.34429277  0.99620111    -0.06100
H140        H  0.80392974  0.30131716  0.01353354     0.07700
H141        H  0.79129076  0.35870664  0.98913961     0.08900
Cu142      Cu  0.75728578  0.29562368  0.01638632     0.44200
Cu143      Cu  0.74377036  0.34474956  0.99693061     0.42000
Cu144      Cu  0.70874633  0.30270763  0.00209942     0.43900
N145        N  0.73687068  0.27282761  0.01765818    -0.34800
N146        N  0.71851544  0.27542791  0.01180627    -0.29000
C147        C  0.70893403  0.25794061  0.01241267    -0.05100
C148        C  0.72200512  0.24345240  0.01893249     0.07100
C149        C  0.73961197  0.25356549  0.02213957     0.00900
H150        H  0.69374894  0.25596313  0.00789784     0.08500
H151        H  0.75367372  0.24733373  0.02644468     0.07600
N152        N  0.70097715  0.33138031  0.99482404    -0.36200
N153        N  0.71291624  0.34692720  0.99353800    -0.28400
C154        C  0.70180805  0.36322102  0.98991870    -0.03600
C155        C  0.68210591  0.35743761  0.98865550     0.05000
C156        C  0.68231584  0.33718737  0.99187161     0.03100
H157        H  0.70761547  0.37812736  0.98835581     0.08200
H158        H  0.66970273  0.32734701  0.99277401     0.07000
O159        O  0.96867212  0.04348810  0.69746356    -0.73000
O160        O  0.02776994  0.03824021  0.69138148    -0.74000
O161        O  0.99562364  0.01094897  0.69516156    -0.62600
O162        O  0.00079581  0.07072355  0.69300918    -0.71000
O163        O  0.00495284  0.07093357  0.72561650    -0.70600
O164        O  0.99819741  0.01203101  0.72790580    -0.61800
O165        O  0.03019686  0.03789968  0.72421561    -0.74400
O166        O  0.97265002  0.04488781  0.73005906    -0.73100
Cu167      Cu  0.99805990  0.04083950  0.69302348     1.04600
Cu168      Cu  0.00158136  0.04150756  0.72799958     1.04300
C169        C  0.96140073  0.04501852  0.71491807     0.93200
C170        C  0.03818127  0.03688471  0.70716349     0.92300
C171        C  0.99624739  0.00204541  0.71192964     0.84500
C172        C  0.00396440  0.08022505  0.70908901     0.90700
N173        N  0.00359755  0.26183119  0.71278644    -0.27400
N174        N  0.99903279  0.25830128  0.73153138    -0.35200
C175        C  0.99789342  0.23867943  0.73454080     0.01000
C176        C  0.00200969  0.22907876  0.71695505     0.07000
C177        C  0.00538669  0.24423340  0.70332702    -0.06100
H178        H  0.99498280  0.23193045  0.74881762     0.07700
H179        H  0.00992526  0.24258104  0.68804355     0.08900
Cu180      Cu  0.99713647  0.27903964  0.75386728     0.44200
Cu181      Cu  0.00933025  0.29054412  0.70228343     0.42000
Cu182      Cu  0.01729436  0.32524298  0.74450655     0.43900
N183        N  0.00019905  0.29981031  0.77604365    -0.34800
N184        N  0.00852620  0.31721648  0.77279783    -0.29000
C185        C  0.00881020  0.32758912  0.78984460    -0.05100
C186        C  0.00010467  0.31605520  0.80457152     0.07100
C187        C  0.99489835  0.29849130  0.79516882     0.00900
H188        H  0.01454476  0.34252985  0.79124886     0.08500
H189        H  0.98795648  0.28555816  0.80169789     0.07600
N190        N  0.01967120  0.33247228  0.71473943    -0.36200
N191        N  0.01620704  0.32075069  0.69938398    -0.28400
C192        C  0.01780354  0.33165950  0.68259865    -0.03600
C193        C  0.02266098  0.35106348  0.68773883     0.05000
C194        C  0.02361143  0.35085194  0.70822597     0.03100
H195        H  0.01559306  0.32588353  0.66780942     0.08200
H196        H  0.02628762  0.36332800  0.71794337     0.07000
N197        N  0.27254379  0.05216840  0.77408328    -0.27400
N198        N  0.25471142  0.04518413  0.77803830    -0.35200
C199        C  0.25148746  0.04588091  0.79761272     0.01000
C200        C  0.26803111  0.05363425  0.80675749     0.07000
C201        C  0.28121377  0.05734654  0.79136754    -0.06100
H202        H  0.23791736  0.04110141  0.80460150     0.07700
H203        H  0.29577607  0.06384683  0.79257870     0.08900
Cu204      Cu  0.23407459  0.03613531  0.75754751     0.44200
Cu205      Cu  0.28323066  0.05535248  0.74502404     0.42000
Cu206      Cu  0.24301723  0.05056127  0.70886807     0.43900
N207        N  0.21312127  0.03289805  0.73573218    -0.34800
N208        N  0.21636803  0.03886473  0.71741489    -0.29000
C209        C  0.19967569  0.03714923  0.70685960    -0.05100
C210        C  0.18503271  0.02987393  0.71927352     0.07100
C211        C  0.19420056  0.02725608  0.73749006     0.00900
H212        H  0.19823318  0.04170983  0.69154840     0.08500
H213        H  0.18739959  0.02295326  0.75135496     0.07600
N214        N  0.27176736  0.05691085  0.70172121    -0.36200
N215        N  0.28678824  0.05790592  0.71419449    -0.28400
C216        C  0.30353822  0.05992502  0.70352098    -0.03600
C217        C  0.29867206  0.06007662  0.68344092     0.05000
C218        C  0.27835722  0.05832271  0.68308141     0.03100
H219        H  0.31816959  0.06055274  0.70989731     0.08200
H220        H  0.26884181  0.05753552  0.67024304     0.07000
O221        O  0.29966620  0.05573856  0.96315611    -0.73000
O222        O  0.30318089  0.04800871  0.02276665    -0.74000
O223        O  0.30125913  0.02174565  0.98904491    -0.62600
O224        O  0.30110959  0.08177637  0.99674133    -0.71000
O225        O  0.26856405  0.08026721  0.99964204    -0.70600
O226        O  0.26856482  0.02229808  0.98981288    -0.61800
O227        O  0.27054443  0.04625018  0.02408648    -0.74400
O228        O  0.26706344  0.05628309  0.96551125    -0.73100
Cu229      Cu  0.30253821  0.05181564  0.99285876     1.04600
Cu230      Cu  0.26765723  0.05126236  0.99483028     1.04300
C231        C  0.28270380  0.05741582  0.95497096     0.93200
C232        C  0.28730123  0.04580307  0.03281270     0.92300
C233        C  0.28464001  0.01267922  0.98793690     0.84500
C234        C  0.28450330  0.09036976  0.99960931     0.90700
O235        O  0.97740466  0.06285620  0.30377874    -0.73000
O236        O  0.03690394  0.05649726  0.30214587    -0.74000
O237        O  0.01017097  0.08976204  0.30243994    -0.62600
O238        O  0.00396250  0.02978240  0.30374304    -0.71000
O239        O  0.00181983  0.02997434  0.27095413    -0.70600
O240        O  0.01064787  0.08856505  0.26959152    -0.61800
O241        O  0.03515927  0.05473101  0.26937132    -0.74400
O242        O  0.97732016  0.06371661  0.27089848    -0.73100
Cu243      Cu  0.00715465  0.05975899  0.30426967     1.04600
Cu244      Cu  0.00620181  0.05923822  0.26916022     1.04300
C245        C  0.96808793  0.06454573  0.28734902     0.93200
C246        C  0.04530665  0.05420479  0.28529761     0.92300
C247        C  0.01152694  0.09856012  0.28564555     0.84500
C248        C  0.00175055  0.02046361  0.28737044     0.90700
O249        O  0.02317726  0.36052849  0.98923288    -0.73000
O250        O  0.96300415  0.35972401  0.98920884    -0.74000
O251        O  0.99320045  0.36179991  0.01917928    -0.62600
O252        O  0.99315389  0.35837193  0.95919984    -0.71000
O253        O  0.99268165  0.32546735  0.96158942    -0.70600
O254        O  0.99356581  0.32885466  0.02037711    -0.61800
O255        O  0.96393716  0.32688490  0.99134041    -0.74400
O256        O  0.02287542  0.32762944  0.99055568    -0.73100
Cu257      Cu  0.99313928  0.36134702  0.98912978     1.04600
Cu258      Cu  0.99333654  0.32617416  0.99104024     1.04300
C259        C  0.03248168  0.34398639  0.98983762     0.93200
C260        C  0.95401722  0.34297171  0.99026492     0.92300
C261        C  0.99321351  0.34561471  0.02918084     0.84500
C262        C  0.99255797  0.34122130  0.95104351     0.90700
N263        N  0.01377049  0.27967202  0.26969002    -0.27400
N264        N  0.01003198  0.27462176  0.25111160    -0.35200
C265        C  0.01033525  0.25477185  0.24952913     0.01000
C266        C  0.01432760  0.24671665  0.26795054     0.07000
C267        C  0.01630667  0.26292712  0.28049048    -0.06100
H268        H  0.00791877  0.24676745  0.23584315     0.07700
H269        H  0.01997828  0.26260006  0.29609807     0.08900
Cu270      Cu  0.00517543  0.29412441  0.22787123     0.44200
Cu271      Cu  0.01632925  0.30928565  0.27874956     0.42000
Cu272      Cu  0.00974140  0.34503612  0.23774022     0.43900
N273        N  0.00202092  0.31546840  0.20600469    -0.34800
N274        N  0.00398525  0.33461846  0.20960750    -0.29000
C275        C  0.00210022  0.34481480  0.19253222    -0.05100
C276        C  0.99867607  0.33134419  0.17738528     0.07100
C277        C  0.99872393  0.31286060  0.18655762     0.00900
H278        H  0.00323226  0.36080555  0.19129357     0.08500
H279        H  0.99710002  0.29848769  0.17959166     0.07600
N280        N  0.01585290  0.35263473  0.26671658    -0.36200
N281        N  0.01817185  0.34018502  0.28175008    -0.28400
C282        C  0.02190003  0.35086015  0.29826723    -0.03600
C283        C  0.02206438  0.37089942  0.29323116     0.05000
C284        C  0.01810467  0.37132070  0.27313546     0.03100
H285        H  0.02455683  0.34449060  0.31276288     0.08200
H286        H  0.01670202  0.38429904  0.26374882     0.07000
N287        N  0.28540993  0.04920997  0.21468544    -0.27400
N288        N  0.26632724  0.04792059  0.21078982    -0.35200
C289        C  0.26359890  0.04499967  0.19136239     0.01000
C290        C  0.28173952  0.04436235  0.18205020     0.07000
C291        C  0.29536699  0.04725528  0.19734010    -0.06100
H292        H  0.24922317  0.04371355  0.18450397     0.07700
H293        H  0.31126869  0.04762325  0.19597598     0.08900
Cu294      Cu  0.24371742  0.05003265  0.23105359     0.44200
Cu295      Cu  0.29554059  0.05327703  0.24414044     0.42000
Cu296      Cu  0.25354336  0.05620300  0.28078697     0.43900
N297        N  0.22136287  0.05108455  0.25167724    -0.34800
N298        N  0.22481369  0.05338273  0.27074719    -0.29000
C299        C  0.20751238  0.05296531  0.28059811    -0.05100
C300        C  0.19242027  0.05012781  0.26690084     0.07100
C301        C  0.20189969  0.04910295  0.24870801     0.00900
H302        H  0.20611624  0.05425105  0.29651620     0.08500
H303        H  0.19525601  0.04707805  0.23427651     0.07600
N304        N  0.28329696  0.05848023  0.28751104    -0.36200
N305        N  0.29847779  0.05737692  0.27517700    -0.28400
C306        C  0.31525413  0.05933636  0.28593088    -0.03600
C307        C  0.31029579  0.06192524  0.30583433     0.05000
C308        C  0.28990162  0.06118822  0.30603348     0.03100
H309        H  0.32995189  0.05896087  0.27970531     0.08200
H310        H  0.28029671  0.06212987  0.31878561     0.07000
N311        N  0.21379218  0.33103096  0.99469320    -0.27400
N312        N  0.20935231  0.31206493  0.99734300    -0.35200
C313        C  0.18969739  0.30988345  0.99764827     0.01000
C314        C  0.18094827  0.32828963  0.99492363     0.07000
C315        C  0.19678385  0.34143180  0.99323128    -0.06100
H316        H  0.18242561  0.29571116  0.99965378     0.07700
H317        H  0.19602524  0.35728352  0.99065341     0.08900
Cu318      Cu  0.22931712  0.28893281  0.99979461     0.44200
Cu319      Cu  0.24309860  0.34104292  0.99263300     0.42000
Cu320      Cu  0.27925178  0.29948606  0.99692313     0.43900
N321        N  0.25045824  0.26688644  0.00199979    -0.34800
N322        N  0.26948791  0.27074988  0.00087316    -0.29000
C323        C  0.27968394  0.25367034  0.00263748    -0.05100
C324        C  0.26628644  0.23823788  0.00512803     0.07100
C325        C  0.24788916  0.24727876  0.00457038     0.00900
H326        H  0.29560669  0.25264587  0.00224456     0.08500
H327        H  0.23360356  0.24016921  0.00561641     0.07600
N328        N  0.28623592  0.32898623  0.99250887    -0.36200
N329        N  0.27391149  0.34417749  0.99108269    -0.28400
C330        C  0.28463046  0.36091076  0.98819731    -0.03600
C331        C  0.30448527  0.35577541  0.98757615     0.05000
C332        C  0.30478426  0.33548595  0.99046230     0.03100
H333        H  0.27843208  0.37559974  0.98631788     0.08200
H334        H  0.31762317  0.32598025  0.99120322     0.07000
O335        O  0.96020138  0.77133650  0.00514557    -0.73000
O336        O  0.01793214  0.77132448  0.99418381    -0.74000
O337        O  0.98337267  0.76771176  0.97117519    -0.62600
O338        O  0.99459023  0.77537534  0.02843946    -0.71000
O339        O  0.99431354  0.74281436  0.03340517    -0.70600
O340        O  0.98531747  0.73492574  0.97433112    -0.61800
O341        O  0.01929394  0.73880790  0.99926518    -0.74400
O342        O  0.96009084  0.73854248  0.00818090    -0.73100
Cu343      Cu  0.98902694  0.77246800  0.99963044     1.04600
Cu344      Cu  0.98979147  0.73753712  0.00400686     1.04300
C345        C  0.95078873  0.75508316  0.00780113     0.93200
C346        C  0.02787909  0.75523438  0.99504338     0.92300
C347        C  0.98252287  0.75038735  0.96360448     0.84500
C348        C  0.99612627  0.76052827  0.04013121     0.90700
N349        N  0.00960651  0.83917469  0.27980586    -0.27400
N350        N  0.01133709  0.84365913  0.26078063    -0.35200
C351        C  0.00941727  0.86329129  0.25835175     0.01000
C352        C  0.00613286  0.87195069  0.27661196     0.07000
C353        C  0.00656684  0.85619503  0.29001913    -0.06100
H354        H  0.00999598  0.87063339  0.24408253     0.07700
H355        H  0.00403330  0.85693898  0.30583420     0.08900
Cu356      Cu  0.01411230  0.82389524  0.23758102     0.44200
Cu357      Cu  0.00984876  0.80965231  0.28987675     0.42000
Cu358      Cu  0.01022609  0.77370912  0.24789513     0.43900
N359        N  0.01367672  0.80301309  0.21520336    -0.34800
N360        N  0.01204830  0.78388440  0.21903000    -0.29000
C361        C  0.01150249  0.77379891  0.20183304    -0.05100
C362        C  0.01286067  0.78734313  0.18628338     0.07100
C363        C  0.01418749  0.80576616  0.19548423     0.00900
H364        H  0.01008947  0.75782731  0.20084706     0.08500
H365        H  0.01506144  0.82021333  0.18849806     0.07600
N366        N  0.00876808  0.76624803  0.27761133    -0.36200
N367        N  0.00892140  0.77860406  0.29286080    -0.28400
C368        C  0.00819333  0.76776692  0.30973252    -0.03600
C369        C  0.00737636  0.74772321  0.30476380     0.05000
C370        C  0.00783867  0.74750207  0.28427636     0.03100
H371        H  0.00818598  0.77403663  0.32448399     0.08200
H372        H  0.00798078  0.73462671  0.27471290     0.07000
N373        N  0.20793285  0.77168334  0.98744440    -0.27400
N374        N  0.20321172  0.79075065  0.98676532    -0.35200
C375        C  0.18355771  0.79255241  0.98621261     0.01000
C376        C  0.17510441  0.77379171  0.98639874     0.07000
C377        C  0.19110821  0.76086954  0.98732313    -0.06100
H378        H  0.17615650  0.80674674  0.98565948     0.07700
H379        H  0.19063247  0.74480423  0.98752762     0.08900
Cu380      Cu  0.22230462  0.81480825  0.98593112     0.44200
Cu381      Cu  0.23713254  0.76145555  0.98752743     0.42000
Cu382      Cu  0.27159887  0.80364402  0.98732383     0.43900
N383        N  0.24344964  0.83704382  0.98566449    -0.34800
N384        N  0.26233710  0.83262885  0.98666721    -0.29000
C385        C  0.27306398  0.84942498  0.98619775    -0.05100
C386        C  0.26023517  0.86537923  0.98470673     0.07100
C387        C  0.24150376  0.85688822  0.98443061     0.00900
H388        H  0.28901525  0.84986152  0.98645776     0.08500
H389        H  0.22748172  0.86447983  0.98349796     0.07600
N390        N  0.27967204  0.77436933  0.98512984    -0.36200
N391        N  0.26786453  0.75870432  0.98546170    -0.28400
C392        C  0.27906667  0.74219929  0.98361893    -0.03600
C393        C  0.29871156  0.74801363  0.98179536     0.05000
C394        C  0.29835035  0.76846630  0.98289242     0.03100
H395        H  0.27333644  0.72718906  0.98331584     0.08200
H396        H  0.31081398  0.77851914  0.98241068     0.07000
N397        N  0.99479762  0.82035106  0.72654867    -0.27400
N398        N  0.98722500  0.82451332  0.74414542    -0.35200
C399        C  0.98509627  0.84426966  0.74578841     0.01000
C400        C  0.99151761  0.85314076  0.72843047     0.07000
C401        C  0.99746700  0.83750780  0.71647262    -0.06100
H402        H  0.97955937  0.85165614  0.75887898     0.07700
H403        H  0.00400442  0.83857639  0.70187693     0.08900
Cu404      Cu  0.98131322  0.80403777  0.76644666     0.44200
Cu405      Cu  0.00249938  0.79159305  0.71775842     0.42000
Cu406      Cu  0.99895847  0.75555746  0.75813160     0.43900
N407        N  0.98041066  0.78212442  0.78812751    -0.34800
N408        N  0.98753615  0.76416103  0.78508183    -0.29000
C409        C  0.98659505  0.75364535  0.80202069    -0.05100
C410        C  0.97842363  0.76558193  0.81656474     0.07100
C411        C  0.97462513  0.78355533  0.80714108     0.00900
H412        H  0.99181726  0.73854768  0.80363151     0.08500
H413        H  0.96897280  0.79699920  0.81380029     0.07600
N414        N  0.00777450  0.74866123  0.72972656    -0.36200
N415        N  0.00876633  0.76131339  0.71473441    -0.28400
C416        C  0.01328072  0.75110131  0.69815461    -0.03600
C417        C  0.01525228  0.73109529  0.70305525     0.05000
C418        C  0.01167395  0.73027566  0.72322810     0.03100
H419        H  0.01453161  0.75770624  0.68357434     0.08200
H420        H  0.01087463  0.71714255  0.73246880     0.07000
N421        N  0.72281486  0.05923801  0.79290859    -0.27400
N422        N  0.74172410  0.05751753  0.79749123    -0.35200
C423        C  0.74397309  0.05849566  0.81716122     0.01000
C424        C  0.72568528  0.06091316  0.82574642     0.07000
C425        C  0.71247297  0.06117625  0.80994809    -0.06100
H426        H  0.75806253  0.05749501  0.82464559     0.07700
H427        H  0.69665638  0.06316251  0.81075083     0.08900
Cu428      Cu  0.76484470  0.05449665  0.77807987     0.44200
Cu429      Cu  0.71281576  0.05967138  0.76337109     0.42000
Cu430      Cu  0.75463434  0.05969495  0.72816443     0.43900
N431        N  0.78690020  0.05362039  0.75726745    -0.34800
N432        N  0.78307477  0.05581362  0.73825659    -0.29000
C433        C  0.80005423  0.05512528  0.72803883    -0.05100
C434        C  0.81544569  0.05243960  0.74138605     0.07100
C435        C  0.80642815  0.05152096  0.75983755     0.00900
H436        H  0.80100629  0.05679377  0.71212450     0.08500
H437        H  0.81339717  0.04958353  0.77413209     0.07600
N438        N  0.72526503  0.06022815  0.72018360    -0.36200
N439        N  0.70991877  0.05982138  0.73229508    -0.28400
C440        C  0.69332584  0.05885652  0.72119628    -0.03600
C441        C  0.69859948  0.05851136  0.70121442     0.05000
C442        C  0.71899110  0.05957130  0.70137108     0.03100
H443        H  0.67857917  0.05798864  0.72726272     0.08200
H444        H  0.72884589  0.05960160  0.68878225     0.07000
N445        N  0.76987289  0.77106536  0.00872013    -0.27400
N446        N  0.77486301  0.78974363  0.00518692    -0.35200
C447        C  0.79452938  0.79127467  0.00442423     0.01000
C448        C  0.80278282  0.77275738  0.00785497     0.07000
C449        C  0.78658672  0.76019054  0.01038126    -0.06100
H450        H  0.80210687  0.80516789  0.00177196     0.07700
H451        H  0.78691209  0.74445073  0.01365252     0.08900
Cu452      Cu  0.75595300  0.81375104  0.00318364     0.44200
Cu453      Cu  0.74024576  0.76231039  0.01154749     0.42000
Cu454      Cu  0.70616541  0.80577585  0.01089423     0.43900
N455        N  0.73622294  0.83710468  0.00467208    -0.34800
N456        N  0.71726329  0.83417239  0.00778581    -0.29000
C457        C  0.70805727  0.85185209  0.00872266    -0.05100
C458        C  0.72201855  0.86679580  0.00609553     0.07100
C459        C  0.73974581  0.85671435  0.00356738     0.00900
H460        H  0.69240373  0.85357802  0.01125686     0.08500
H461        H  0.75426971  0.86299676  0.00137816     0.07600
N462        N  0.69766390  0.77637322  0.01289188    -0.36200
N463        N  0.70931874  0.76060883  0.01305821    -0.28400
C464        C  0.69787571  0.74417286  0.01390129    -0.03600
C465        C  0.67815342  0.74996340  0.01436328     0.05000
C466        C  0.67879258  0.77049143  0.01364142     0.03100
H467        H  0.70353784  0.72915798  0.01400768     0.08200
H468        H  0.66647030  0.78065531  0.01314021     0.07000
N469        N  0.02200948  0.51274200  0.60734069    -0.27400
N470        N  0.01946401  0.50398559  0.58999554    -0.35200
C471        C  0.01995619  0.48411917  0.59250559     0.01000
C472        C  0.02311019  0.48008647  0.61241655     0.07000
C473        C  0.02427666  0.49866501  0.62131010    -0.06100
H474        H  0.01853372  0.47346286  0.58060587     0.07700
H475        H  0.02646762  0.50184098  0.63686383     0.08900
Cu476      Cu  0.01639740  0.51944270  0.56360282     0.44200
Cu477      Cu  0.02223937  0.54348457  0.61166400     0.42000
Cu478      Cu  0.01563704  0.57292221  0.56739100     0.43900
N479        N  0.01590553  0.53832250  0.53933323    -0.34800
N480        N  0.01558473  0.55791165  0.54069493    -0.29000
C481        C  0.01635055  0.56580747  0.52237509    -0.05100
C482        C  0.01726719  0.55040783  0.50888051     0.07100
C483        C  0.01692426  0.53320467  0.52012066     0.00900
H484        H  0.01674363  0.58157046  0.51919207     0.08500
H485        H  0.01781152  0.51807925  0.51479792     0.07600
N486        N  0.01791015  0.58500627  0.59543920    -0.36200
N487        N  0.02062542  0.57448826  0.61176697    -0.28400
C488        C  0.02185760  0.58704121  0.62727173    -0.03600
C489        C  0.01979243  0.60644117  0.62033367     0.05000
C490        C  0.01731391  0.60439480  0.60002835     0.03100
H491        H  0.02398187  0.58229574  0.64244735     0.08200
H492        H  0.01540847  0.61607396  0.58917298     0.07000
N493        N  0.02966890  0.52635385  0.38539949    -0.27400
N494        N  0.02943986  0.51568901  0.40186282    -0.35200
C495        C  0.03024687  0.49626435  0.39719970     0.01000
C496        C  0.03104063  0.49452320  0.37672180     0.07000
C497        C  0.03066574  0.51399633  0.36980387    -0.06100
H498        H  0.03011569  0.48435197  0.40798986     0.07700
H499        H  0.03060385  0.51892784  0.35453723     0.08900
Cu500      Cu  0.02710983  0.52821590  0.42975029     0.44200
Cu501      Cu  0.02777094  0.55725926  0.38486854     0.42000
Cu502      Cu  0.02360506  0.58220533  0.43222954     0.43900
N503        N  0.02337115  0.54403872  0.45574818    -0.34800
N504        N  0.02211304  0.56362558  0.45674234    -0.29000
C505        C  0.01963350  0.56896196  0.47578936    -0.05100
C506        C  0.01930738  0.55189574  0.48725245     0.07100
C507        C  0.02170711  0.53639696  0.47408725     0.00900
H508        H  0.01819293  0.58412908  0.48087143     0.08500
H509        H  0.02228375  0.52069981  0.47754089     0.07600
N510        N  0.02407566  0.59705301  0.40527752    -0.36200
N511        N  0.02525414  0.58796087  0.38796831    -0.28400
C512        C  0.02399678  0.60162860  0.37342922    -0.03600
C513        C  0.02197313  0.62026749  0.38197563     0.05000
C514        C  0.02218360  0.61672517  0.40222417     0.03100
H515        H  0.02437670  0.59816596  0.35778332     0.08200
H516        H  0.02037489  0.62753628  0.41392326     0.07000
C517        C  0.01819612  0.71378434  0.68974766    -0.01400
C518        C  0.01441308  0.71519727  0.66937720    -0.09400
C519        C  0.01535568  0.69837901  0.65724988    -0.18200
C520        C  0.02012244  0.67946596  0.66517130     0.04200
C521        C  0.02468932  0.67829904  0.68570011     0.18400
C522        C  0.02377688  0.69531617  0.69765737    -0.19700
C523        C  0.02979791  0.66007378  0.69431599    -0.20900
C524        C  0.03010650  0.64281281  0.68305470    -0.19500
C525        C  0.02524820  0.64330975  0.66289544     0.19700
C526        C  0.02029813  0.66164781  0.65360954     0.01900
C527        C  0.01543431  0.66124751  0.63324831    -0.14200
C528        C  0.01533364  0.64344170  0.62265373    -0.11900
C529        C  0.02011828  0.62533207  0.63184071     0.01400
C530        C  0.02515593  0.62548598  0.65202254    -0.24100
H531        H  0.01012994  0.72923527  0.66281199     0.09400
H532        H  0.01200456  0.70064075  0.64179218     0.13000
H533        H  0.02720798  0.69403180  0.71329452     0.11700
H534        H  0.03338630  0.65911836  0.70995215     0.03300
H535        H  0.03396560  0.62892227  0.69023218     0.11900
H536        H  0.01144740  0.67442488  0.62508106     0.09000
H537        H  0.01126272  0.64400561  0.60716620     0.12300
H538        H  0.02901859  0.61172485  0.65940505     0.14100
C539        C  0.00713920  0.72998515  0.31792733    -0.01400
C540        C  0.01370423  0.73101357  0.33759701    -0.09400
C541        C  0.01534860  0.71377283  0.34917933    -0.18200
C542        C  0.01053441  0.69485163  0.34133518     0.04200
C543        C  0.00313160  0.69408531  0.32163477     0.18400
C544        C  0.00131389  0.71149405  0.31033330    -0.19700
C545        C  0.99807891  0.67587390  0.31303053    -0.20900
C546        C  0.00083369  0.65822122  0.32332894    -0.19500
C547        C  0.00850654  0.65834157  0.34257730     0.19700
C548        C  0.01315089  0.67663861  0.35205299     0.01900
C549        C  0.02044418  0.67579625  0.37169656    -0.14200
C550        C  0.02323277  0.65757113  0.38133345    -0.11900
C551        C  0.01901299  0.63959501  0.37173562     0.01400
C552        C  0.01160020  0.64016709  0.35235425    -0.24100
H553        H  0.01820734  0.74509152  0.34389955     0.09400
H554        H  0.02086846  0.71568364  0.36403607     0.13000
H555        H  0.99568077  0.71048032  0.29533867     0.11700
H556        H  0.99231935  0.67523752  0.29804771     0.12900
H557        H  0.99709310  0.64434321  0.31610249     0.11900
H558        H  0.02415583  0.68894485  0.37999537     0.09000
H559        H  0.02898708  0.65759041  0.39630908     0.12300
H560        H  0.00793285  0.62641499  0.34487023     0.14100
C561        C  0.04945379  0.75603680  0.99135338    -0.01400
C562        C  0.06144939  0.73915887  0.99317609    -0.09400
C563        C  0.08198410  0.74059155  0.99088737    -0.18200
C564        C  0.09115757  0.75909430  0.98683011     0.04200
C565        C  0.07874033  0.77594224  0.98434238     0.18400
C566        C  0.05826996  0.77423864  0.98647891    -0.19700
C567        C  0.08678396  0.79463507  0.98023901    -0.20900
C568        C  0.10702407  0.79719429  0.97918042    -0.19500
C569        C  0.11973085  0.78111677  0.98215316     0.19700
C570        C  0.11211940  0.76173975  0.98567864     0.01900
C571        C  0.12588521  0.74612871  0.98834412    -0.14200
C572        C  0.14628209  0.74986627  0.98829971    -0.11900
C573        C  0.15359681  0.76919828  0.98548308     0.01400
C574        C  0.14008475  0.78456811  0.98197811    -0.24100
H575        H  0.05499800  0.72484908  0.99672361     0.09400
H576        H  0.09031661  0.72708265  0.99273307     0.13000
H577        H  0.04919438  0.78739261  0.98478717     0.11700
H578        H  0.07735454  0.80747997  0.97821509     0.12900
H579        H  0.11279484  0.81197033  0.97635506     0.11900
H580        H  0.12132214  0.73096337  0.99078491     0.09000
H581        H  0.15628536  0.73759826  0.99080774     0.12300
H582        H  0.14525641  0.79953463  0.97924920     0.14100
C583        C  0.99998833  0.76428859  0.06147817    -0.01400
C584        C  0.00411962  0.78368406  0.06786182    -0.09400
C585        C  0.00734625  0.78786545  0.08782966    -0.18200
C586        C  0.00643056  0.77271812  0.10233782     0.04200
C587        C  0.00212754  0.75305654  0.09590172     0.18400
C588        C  0.99919914  0.74898086  0.07561852    -0.19700
C589        C  0.00039576  0.73766672  0.10980290    -0.20900
C590        C  0.00237393  0.74146029  0.12999121    -0.19500
C591        C  0.00656016  0.76066676  0.13678750     0.19700
C592        C  0.00912591  0.77647680  0.12302311     0.01900
C593        C  0.01418001  0.79538740  0.13058794    -0.14200
C594        C  0.01568075  0.79865825  0.15094612    -0.11900
C595        C  0.01225083  0.78328519  0.16459204     0.01400
C596        C  0.00801913  0.76419413  0.15730446    -0.24100
H597        H  0.00480368  0.79585954  0.05734625     0.09400
H598        H  0.01013450  0.80319998  0.09142944     0.13000
H599        H  0.99589217  0.73394536  0.07090905     0.11700
H600        H  0.99712355  0.72263997  0.10505591     0.12900
H601        H  0.00056321  0.72927566  0.14037403     0.11900
H602        H  0.01713815  0.80799727  0.12117862     0.09000
H603        H  0.01950822  0.81344190  0.15589905     0.12300
H604        H  0.00555091  0.75202832  0.16754017     0.14100
C605        C  0.92896985  0.75587802  0.00980869    -0.01400
C606        C  0.91716350  0.73870995  0.00976930    -0.09400
C607        C  0.89646184  0.74013494  0.01016872    -0.18200
C608        C  0.88696354  0.75888569  0.01061349     0.04200
C609        C  0.89917233  0.77610360  0.01106935     0.18400
C610        C  0.91973142  0.77444051  0.01068286    -0.19700
C611        C  0.89088851  0.79507740  0.01170235    -0.20900
C612        C  0.87063109  0.79747114  0.01178550    -0.19500
C613        C  0.85811609  0.78096079  0.01105005     0.19700
C614        C  0.86592259  0.76138347  0.01046764     0.01900
C615        C  0.85226315  0.74541027  0.00957153    -0.14200
C616        C  0.83179138  0.74890609  0.00894497    -0.11900
C617        C  0.82432580  0.76836106  0.00926216     0.01400
C618        C  0.83774645  0.78416811  0.01067156    -0.24100
H619        H  0.92391412  0.72415239  0.00907025     0.09400
H620        H  0.88826470  0.72638739  0.00995830     0.13000
H621        H  0.92860683  0.78786955  0.01080852     0.11700
H622        H  0.90016416  0.80821727  0.01206716     0.12900
H623        H  0.86469978  0.81241721  0.01221888     0.11900
H624        H  0.85699826  0.73012833  0.00910745     0.09000
H625        H  0.82183766  0.73634828  0.00793256     0.12300
H626        H  0.83246341  0.79929667  0.01147002     0.14100
C627        C  0.97813607  0.74886380  0.94227866    -0.01400
C628        C  0.96459775  0.76214110  0.93395780    -0.09400
C629        C  0.96222440  0.76349801  0.91350864    -0.18200
C630        C  0.97381353  0.75188239  0.90056448     0.04200
C631        C  0.98687292  0.73767459  0.90911119     0.18400
C632        C  0.98869649  0.73606668  0.92987160    -0.19700
C633        C  0.99866301  0.72583670  0.89688073    -0.20900
C634        C  0.99836632  0.72835389  0.87639117    -0.19500
C635        C  0.98625897  0.74275706  0.86761262     0.19700
C636        C  0.97351879  0.75447279  0.87953288     0.01900
C637        C  0.96160069  0.76881751  0.86992918    -0.14200
C638        C  0.96297914  0.77202070  0.84954136    -0.11900
C639        C  0.97601757  0.76092445  0.83792940     0.01400
C640        C  0.98727100  0.74595160  0.84702088    -0.24100
H641        H  0.95609793  0.77194936  0.94338170     0.09400
H642        H  0.95165777  0.77426387  0.90835854     0.13000
H643        H  0.99923450  0.72579719  0.93630766     0.11700
H644        H  0.00856598  0.71490901  0.90323325     0.12900
H645        H  0.00802516  0.71927415  0.86737684     0.11900
H646        H  0.95130796  0.77810581  0.87775034     0.09000
H647        H  0.95381942  0.78338649  0.84287414     0.12300
H648        H  0.99745908  0.73726122  0.83823012     0.14100
C649        C  0.02559461  0.38846738  0.30598116    -0.01400
C650        C  0.03232478  0.40617243  0.29735080    -0.09400
C651        C  0.03445691  0.42339080  0.30853466    -0.18200
C652        C  0.02976772  0.42362000  0.32893202     0.04200
C653        C  0.02363290  0.40546171  0.33788669     0.18400
C654        C  0.02167271  0.38808137  0.32640158    -0.19700
C655        C  0.01921936  0.40488229  0.35816307    -0.20900
C656        C  0.02051241  0.42200330  0.36967643    -0.19500
C657        C  0.02604520  0.44020361  0.36117319     0.19700
C658        C  0.03076819  0.44125235  0.34066948     0.01900
C659        C  0.03591820  0.46000903  0.33270565    -0.14200
C660        C  0.03618419  0.47698271  0.34449477    -0.11900
C661        C  0.03139931  0.47603038  0.36467070     0.01400
C662        C  0.02655467  0.45745990  0.37296714    -0.24100
H663        H  0.03600511  0.40680889  0.28174672     0.09400
H664        H  0.03974556  0.43628918  0.30066691     0.13000
H665        H  0.01652847  0.37443504  0.33325220     0.11700
H666        H  0.01461503  0.39111306  0.36514944     0.12900
H667        H  0.01689651  0.42105196  0.38530170     0.11900
H668        H  0.03959956  0.46220115  0.31732160     0.09000
H669        H  0.04021640  0.49095264  0.33762678     0.12300
H670        H  0.02268693  0.45642842  0.38851509     0.14100
C671        C  0.05445969  0.34335359  0.98972074    -0.01400
C672        C  0.06603592  0.36048337  0.99230728    -0.09400
C673        C  0.08675503  0.35931020  0.99275454    -0.18200
C674        C  0.09657198  0.34085779  0.99054839     0.04200
C675        C  0.08465926  0.32367651  0.98763198     0.18400
C676        C  0.06402380  0.32508020  0.98726353    -0.19700
C677        C  0.09332733  0.30500675  0.98523851    -0.20900
C678        C  0.11363710  0.30286156  0.98595165    -0.19500
C679        C  0.12584874  0.31932797  0.98906646     0.19700
C680        C  0.11765141  0.33863258  0.99126687     0.01900
C681        C  0.13097102  0.35464232  0.99418411    -0.14200
C682        C  0.15146235  0.35144466  0.99518161    -0.11900
C683        C  0.15933071  0.33224728  0.99335579     0.01400
C684        C  0.14628789  0.31638963  0.99007838    -0.24100
H685        H  0.05906478  0.37482026  0.99423409     0.09400
H686        H  0.09470444  0.37302077  0.99496411     0.13000
H687        H  0.05533950  0.31170799  0.98509351     0.11700
H688        H  0.08430513  0.29189327  0.98293406     0.12900
H689        H  0.11984312  0.28813194  0.98418502     0.11900
H690        H  0.12595716  0.36974363  0.99585259     0.09000
H691        H  0.16112213  0.36402581  0.99766486     0.12300
H692        H  0.15197416  0.30150017  0.98814659     0.14100
C693        C  0.99638302  0.33545081  0.15591747    -0.01400
C694        C  0.00354805  0.35308476  0.14743328    -0.09400
C695        C  0.00238463  0.35628795  0.12695131    -0.18200
C696        C  0.99394511  0.34185106  0.11427655     0.04200
C697        C  0.98628093  0.32424120  0.12312692     0.18400
C698        C  0.98747849  0.32129518  0.14365141    -0.19700
C699        C  0.97775365  0.30940382  0.11144268    -0.20900
C700        C  0.97716917  0.31134168  0.09100047    -0.19500
C701        C  0.98495924  0.32823326  0.08175768     0.19700
C702        C  0.99313654  0.34396216  0.09317245     0.01900
C703        C  0.00033252  0.36087727  0.08286922    -0.14200
C704        C  0.99992875  0.36175989  0.06210384    -0.11900
C705        C  0.99255346  0.34578994  0.05106683     0.01400
C706        C  0.98484281  0.32926000  0.06104680    -0.24100
H707        H  0.01054516  0.36427631  0.15656243     0.09400
H708        H  0.00849961  0.37003107  0.12145397     0.13000
H709        H  0.98153698  0.30776584  0.15005216     0.11700
H710        H  0.97179175  0.29602051  0.11814172     0.12900
H711        H  0.97076721  0.29941303  0.08232884     0.11900
H712        H  0.00648665  0.37355351  0.09042172     0.09000
H713        H  0.00586901  0.37473576  0.05465900     0.12300
H714        H  0.97876723  0.31698332  0.05260115     0.14100
C715        C  0.06685436  0.05093340  0.28373901    -0.01400
C716        C  0.07461960  0.04309596  0.26617500    -0.09400
C717        C  0.09489099  0.04111098  0.26353952    -0.18200
C718        C  0.10829652  0.04719255  0.27839433     0.04200
C719        C  0.10040046  0.05466080  0.29644258     0.18400
C720        C  0.07982483  0.05624119  0.29905103    -0.19700
C721        C  0.11311014  0.06102341  0.31153042    -0.20900
C722        C  0.13348485  0.06072656  0.30884999    -0.19500
C723        C  0.14169178  0.05391012  0.29107018     0.19700
C724        C  0.12921261  0.04667828  0.27573715     0.01900
C725        C  0.13820976  0.03963013  0.25822281    -0.14200
C726        C  0.15858787  0.04051366  0.25570635    -0.11900
C727        C  0.17085810  0.04832581  0.27050052     0.01400
C728        C  0.16229830  0.05463172  0.28836174    -0.24100
H729        H  0.06493881  0.03860115  0.25420135     0.09400
H730        H  0.09953339  0.03515000  0.24950229     0.13000
H731        H  0.07395428  0.06229710  0.31270834     0.11700
H732        H  0.10724173  0.06665116  0.32536341     0.12900
H733        H  0.14288529  0.06612275  0.32068173     0.11900
H734        H  0.12995352  0.03345155  0.24606273     0.09000
H735        H  0.16468090  0.03498759  0.24196813     0.12300
H736        H  0.17157950  0.06060937  0.30000003     0.14100
C737        C  0.01688630  0.22531009  0.27227145    -0.01400
C738        C  0.02562262  0.21321565  0.25792683    -0.09400
C739        C  0.02652494  0.19270578  0.26040095    -0.18200
C740        C  0.01826385  0.18340586  0.27728191     0.04200
C741        C  0.01013922  0.19576724  0.29228679     0.18400
C742        C  0.00969194  0.21660044  0.28975818    -0.19700
C743        C  0.00208772  0.18718455  0.30942557    -0.20900
C744        C  0.00163770  0.16659115  0.31182786    -0.19500
C745        C  0.00904015  0.15401772  0.29706460     0.19700
C746        C  0.01746121  0.16229430  0.27957336     0.01900
C747        C  0.02420464  0.14906674  0.26481778    -0.14200
C748        C  0.02241670  0.12859014  0.26716558    -0.11900
C749        C  0.01412656  0.12039792  0.28434141     0.01400
C750        C  0.00769481  0.13320167  0.29942707    -0.24100
H751        H  0.03170498  0.21967514  0.24452309     0.09400
H752        H  0.03357891  0.18459101  0.24864912     0.13000
H753        H  0.00297412  0.22592720  0.30095963     0.11700
H754        H  0.99591028  0.19645681  0.32097230     0.12900
H755        H  0.99515285  0.16044733  0.32519322     0.11900
H756        H  0.03059346  0.15399696  0.25105064     0.09000
H757        H  0.02755437  0.11906156  0.25531998     0.12300
H758        H  0.00105908  0.12699840  0.31269736     0.14100
C759        C  0.99938735  0.99854061  0.28697148    -0.01400
C760        C  0.99437194  0.98928462  0.26908611    -0.09400
C761        C  0.99334231  0.96870157  0.26765739    -0.18200
C762        C  0.99744723  0.95641201  0.28415650     0.04200
C763        C  0.00241838  0.96572005  0.30238865     0.18400
C764        C  0.00303367  0.98664756  0.30373993    -0.19700
C765        C  0.00738847  0.95404169  0.31889234    -0.20900
C766        C  0.00836767  0.93337319  0.31739984    -0.19500
C767        C  0.00387236  0.92381042  0.29951221     0.19700
C768        C  0.99760887  0.93523660  0.28289765     0.01900
C769        C  0.99203626  0.92499370  0.26555319    -0.14200
C770        C  0.99419861  0.90453064  0.26412975    -0.11900
C771        C  0.00186662  0.89334394  0.27988304     0.01400
C772        C  0.00599667  0.90297362  0.29788395    -0.24100
H773        H  0.99147813  0.99800596  0.25588321     0.09400
H774        H  0.98991459  0.96291934  0.25317868     0.13000
H775        H  0.00706609  0.99362607  0.31763917     0.11700
H776        H  0.01113174  0.96097003  0.33289091     0.12900
H777        H  0.01287476  0.92483143  0.33026305     0.11900
H778        H  0.98596848  0.93233515  0.25272128     0.09000
H779        H  0.98991673  0.89747114  0.25037931     0.12300
H780        H  0.01154120  0.89442309  0.31032846     0.14100
C781        C  0.27027224  0.21666811  0.00734468    -0.01400
C782        C  0.25554334  0.20420206  0.01494478    -0.09400
C783        C  0.25808767  0.18370564  0.01559716    -0.18200
C784        C  0.27554802  0.17478999  0.00845098     0.04200
C785        C  0.29098354  0.18747566  0.00179164     0.18400
C786        C  0.28826416  0.20824153  0.00135109    -0.19700
C787        C  0.30879741  0.17929598  0.99515841    -0.20900
C788        C  0.31136542  0.15875579  0.99442033    -0.19500
C789        C  0.29611258  0.14586608  0.00009703     0.19700
C790        C  0.27803056  0.15375615  0.00732554     0.01900
C791        C  0.26291084  0.14026142  0.01251817    -0.14200
C792        C  0.26544120  0.11990979  0.01026058    -0.11900
C793        C  0.28311845  0.11207962  0.00290944     0.01400
C794        C  0.29858821  0.12514093  0.99814303    -0.24100
H795        H  0.24178466  0.21025230  0.02036211     0.09400
H796        H  0.24596986  0.17530738  0.02165228     0.13000
H797        H  0.29990212  0.21772343  0.99565820     0.11700
H798        H  0.32073200  0.18884584  0.99023735     0.12900
H799        H  0.32522969  0.15291554  0.98897042     0.11900
H800        H  0.24872855  0.14488393  0.01797652     0.09000
H801        H  0.25326182  0.11022243  0.01419294     0.12300
H802        H  0.31229599  0.11924761  0.99234903     0.14100
C803        C  0.28797829  0.04286812  0.05467757    -0.01400
C804        C  0.27192036  0.03397336  0.06430617    -0.09400
C805        C  0.27142289  0.03215736  0.08491652    -0.18200
C806        C  0.28695760  0.03954013  0.09685546     0.04200
C807        C  0.30339495  0.04836567  0.08710659     0.18400
C808        C  0.30391931  0.04967065  0.06618452    -0.19700
C809        C  0.31890759  0.05632958  0.09834979    -0.20900
C810        C  0.31815778  0.05628807  0.11903866    -0.19500
C811        C  0.30201209  0.04801289  0.12910235     0.19700
C812        C  0.28642542  0.03907636  0.11809924     0.01900
C813        C  0.27076036  0.03036078  0.12884652    -0.14200
C814        C  0.26996055  0.03154288  0.14945134    -0.11900
C815        C  0.28469028  0.04133630  0.16033041     0.01400
C816        C  0.30106744  0.04902533  0.15006198    -0.24100
H817        H  0.25948600  0.02845983  0.05582760     0.09400
H818        H  0.25839057  0.02534140  0.09102456     0.13000
H819        H  0.31638733  0.05669042  0.05891658     0.11700
H820        H  0.33152860  0.06305307  0.09108433     0.12900
H821        H  0.33020507  0.06299527  0.12722336     0.11900
H822        H  0.25874408  0.02263702  0.12179874     0.09000
H823        H  0.25746260  0.02481782  0.15689102     0.12300
H824        H  0.31266440  0.05647489  0.15826468     0.14100
C825        C  0.28339359  0.99094249  0.98467894    -0.01400
C826        C  0.29920734  0.97824469  0.98888766    -0.09400
C827        C  0.29684153  0.95756169  0.98776448    -0.18200
C828        C  0.27849303  0.94900066  0.98230070     0.04200
C829        C  0.26294610  0.96208912  0.97692798     0.18400
C830        C  0.26550288  0.98269031  0.97822679    -0.19700
C831        C  0.24470794  0.95460727  0.97068809    -0.20900
C832        C  0.24129170  0.93429407  0.97020066    -0.19500
C833        C  0.25591431  0.92097518  0.97626702     0.19700
C834        C  0.27479205  0.92804489  0.98228519     0.01900
C835        C  0.28883754  0.91384217  0.98856857    -0.14200
C836        C  0.28416405  0.89358835  0.98916107    -0.11900
C837        C  0.26542419  0.88678270  0.98345622     0.01400
C838        C  0.25151462  0.90060810  0.97675027    -0.24100
H839        H  0.31324518  0.98427654  0.99367704     0.09400
H840        H  0.30953543  0.94866881  0.99147690     0.13000
H841        H  0.25326931  0.99238388  0.97450309     0.11700
H842        H  0.23288925  0.96456104  0.96638068     0.12900
H843        H  0.22692578  0.92898419  0.96549506     0.11900
H844        H  0.30340547  0.91795978  0.99350905     0.09000
H845        H  0.29521678  0.88329620  0.99450767     0.12300
H846        H  0.23707372  0.89558659  0.97200688     0.14100
C847        C  0.28085668  0.06029663  0.93317777    -0.01400
C848        C  0.26219899  0.06345849  0.92478766    -0.09400
C849        C  0.25969580  0.06446171  0.90429019    -0.18200
C850        C  0.27587573  0.06214658  0.89128262     0.04200
C851        C  0.29497785  0.06015026  0.89977630     0.18400
C852        C  0.29731155  0.05923261  0.92054619    -0.19700
C853        C  0.31155108  0.05859931  0.88746609    -0.20900
C854        C  0.30949576  0.05832135  0.86690946    -0.19500
C855        C  0.29079059  0.05926202  0.85812385     0.19700
C856        C  0.27371174  0.06130341  0.87020219     0.01900
C857        C  0.25512451  0.06167388  0.86070223    -0.14200
C858        C  0.25355343  0.05959733  0.84021278    -0.11900
C859        C  0.27034956  0.05726954  0.82833440     0.01400
C860        C  0.28899772  0.05755922  0.83736242    -0.24100
H861        H  0.24926607  0.06484058  0.93411530     0.09400
H862        H  0.24486576  0.06686148  0.89914683     0.13000
H863        H  0.31188470  0.05712240  0.92682443     0.11700
H864        H  0.32619928  0.05731046  0.89378481     0.12900
H865        H  0.32260346  0.05684670  0.85783657     0.11900
H866        H  0.24145585  0.06305428  0.86866875     0.09000
H867        H  0.23895773  0.05976997  0.83368435     0.12300
H868        H  0.30208019  0.05565646  0.82833915     0.14100
C869        C  0.02558922  0.36883618  0.67494622    -0.01400
C870        C  0.03564244  0.38526537  0.68272166    -0.09400
C871        C  0.03700100  0.40299194  0.67222795    -0.18200
C872        C  0.02824852  0.40508826  0.65336009     0.04200
C873        C  0.01921214  0.38806459  0.64477060     0.18400
C874        C  0.01791104  0.37010477  0.65561309    -0.19700
C875        C  0.01121525  0.38929265  0.62563403    -0.20900
C876        C  0.01146334  0.40721933  0.61516313    -0.19500
C877        C  0.01935388  0.42447925  0.62371474     0.19700
C878        C  0.02793271  0.42357484  0.64292293     0.01900
C879        C  0.03525638  0.44138683  0.65121333    -0.14200
C880        C  0.03384439  0.45935217  0.64109064    -0.11900
C881        C  0.02518132  0.46041485  0.62228967     0.01400
C882        C  0.01827039  0.44277830  0.61347513    -0.24100
H883        H  0.04249699  0.38458608  0.69719672     0.09400
H884        H  0.04500434  0.41477487  0.67942355     0.13000
H885        H  0.01036720  0.35741092  0.64926316     0.11700
H886        H  0.00452729  0.37636459  0.61880501     0.12900
H887        H  0.00498449  0.40769790  0.60047621     0.11900
H888        H  0.04179027  0.44213584  0.66573686     0.09000
H889        H  0.03963189  0.47252650  0.64820202     0.12300
H890        H  0.01146233  0.44334639  0.59894852     0.14100
C891        C  0.99700154  0.32109694  0.82576332    -0.01400
C892        C  0.98357519  0.31012527  0.83720242    -0.09400
C893        C  0.98121837  0.31390498  0.85737672    -0.18200
C894        C  0.99237392  0.32884093  0.86694637     0.04200
C895        C  0.00531705  0.34057359  0.85515076     0.18400
C896        C  0.00755186  0.33659249  0.83480224    -0.19700
C897        C  0.01615233  0.35603442  0.86379345    -0.20900
C898        C  0.01462913  0.35993356  0.88398856    -0.19500
C899        C  0.00258304  0.34817984  0.89614237     0.19700
C900        C  0.99134048  0.33238080  0.88780100     0.01900
C901        C  0.98010122  0.32036041  0.90080737    -0.14200
C902        C  0.98040734  0.32360963  0.92119729    -0.11900
C903        C  0.99146896  0.33916696  0.92932025     0.01400
C904        C  0.00219615  0.35170783  0.91670735    -0.24100
H905        H  0.97474541  0.29848090  0.83058839     0.09400
H906        H  0.97051333  0.30486983  0.86502995     0.13000
H907        H  0.01788234  0.34532055  0.82614051     0.11700
H908        H  0.02595617  0.36513275  0.85488027     0.12900
H909        H  0.02329097  0.37194820  0.89022356     0.11900
H910        H  0.97139792  0.30794223  0.89580676     0.09000
H911        H  0.97197445  0.31378199  0.93073661     0.12300
H912        H  0.01097106  0.36361978  0.92300304     0.14100
C913        C  0.05961247  0.03396913  0.70625900    -0.01400
C914        C  0.07106592  0.04315692  0.69166861    -0.09400
C915        C  0.09163209  0.04182630  0.69231390    -0.18200
C916        C  0.10125901  0.03101867  0.70757015     0.04200
C917        C  0.08935912  0.02136462  0.72202675     0.18400
C918        C  0.06881518  0.02290596  0.72120849    -0.19700
C919        C  0.09799077  0.01057901  0.73750743    -0.20900
C920        C  0.11835072  0.00956365  0.73929472    -0.19500
C921        C  0.13052401  0.01919568  0.72555655     0.19700
C922        C  0.12220074  0.02976306  0.70929238     0.01900
C923        C  0.13522801  0.03882301  0.69564356    -0.14200
C924        C  0.15557621  0.03820052  0.69854360    -0.11900
C925        C  0.16365312  0.02853429  0.71507439     0.01400
C926        C  0.15102000  0.01863369  0.72824224    -0.24100
H927        H  0.06413645  0.05194794  0.68013782     0.09400
H928        H  0.09954002  0.04969909  0.68087952     0.13000
H929        H  0.05989425  0.01567649  0.73248004     0.11700
H930        H  0.08892543  0.00314315  0.74850326     0.12900
H931        H  0.12461393  0.00138398  0.75164318     0.11900
H932        H  0.13018423  0.04675297  0.68271550     0.09000
H933        H  0.16490063  0.04591863  0.68802865     0.12300
H934        H  0.15707442  0.01071759  0.74085188     0.14100
C935        C  0.00641042  0.10209755  0.70894932    -0.01400
C936        C  0.01374714  0.11149576  0.72590461    -0.09400
C937        C  0.01482942  0.13208609  0.72701892    -0.18200
C938        C  0.00832073  0.14418408  0.71117564     0.04200
C939        C  0.00197316  0.13469230  0.69347824     0.18400
C940        C  0.00106916  0.11376971  0.69249186    -0.19700
C941        C  0.99623883  0.14617920  0.67709852    -0.20900
C942        C  0.99625034  0.16689051  0.67811148    -0.19500
C943        C  0.00159513  0.17662810  0.69566329     0.19700
C944        C  0.00765015  0.16533398  0.71244834     0.01900
C945        C  0.01216237  0.17563409  0.73008645    -0.14200
C946        C  0.01057632  0.19617170  0.73110695    -0.11900
C947        C  0.00456783  0.20735489  0.71466576     0.01400
C948        C  0.00043311  0.19754668  0.69679326    -0.24100
H949        H  0.01854318  0.10287538  0.73860354     0.09400
H950        H  0.02077683  0.13799604  0.74057192     0.13000
H951        H  0.99568248  0.10663167  0.67914795     0.11700
H952        H  0.99156082  0.13909961  0.66346315     0.12900
H953        H  0.99161137  0.17532889  0.66522861     0.11900
H954        H  0.01651513  0.16830074  0.74357776     0.09000
H955        H  0.01415020  0.20332371  0.74501909     0.12300
H956        H  0.99562113  0.20609286  0.68404188     0.14100
C957        C  0.99517724  0.98005720  0.71310370    -0.01400
C958        C  0.99127726  0.96839923  0.69633692    -0.09400
C959        C  0.99083328  0.94760290  0.69768914    -0.18200
C960        C  0.99440733  0.93779850  0.71595108     0.04200
C961        C  0.99833934  0.94980224  0.73283281     0.18400
C962        C  0.99863146  0.97055663  0.73126834    -0.19700
C963        C  0.00201176  0.94108888  0.75129839    -0.20900
C964        C  0.00158432  0.92061816  0.75353452    -0.19500
C965        C  0.99756041  0.90832889  0.73734430     0.19700
C966        C  0.99415430  0.91661534  0.71822265     0.01900
C967        C  0.99065515  0.90327900  0.70236495    -0.14200
C968        C  0.99023561  0.88266930  0.70553251    -0.11900
C969        C  0.99298660  0.87477495  0.72456591     0.01400
C970        C  0.99681309  0.88772530  0.74031020    -0.24100
H971        H  0.98855907  0.97536051  0.68210239     0.09400
H972        H  0.98765316  0.93961044  0.68422639     0.13000
H973        H  0.00177192  0.97935580  0.74434895     0.11700
H974        H  0.00511823  0.95019364  0.76417005     0.12900
H975        H  0.00433836  0.91434640  0.76809328     0.11900
H976        H  0.98814883  0.90832965  0.68739706     0.09000
H977        H  0.98728243  0.87289797  0.69313913     0.12300
H978        H  0.99935868  0.88171729  0.75502201     0.14100
C979        C  0.83684584  0.05137644  0.73692563    -0.01400
C980        C  0.84340301  0.04988484  0.71729039    -0.09400
C981        C  0.86347442  0.04904738  0.71289167    -0.18200
C982        C  0.87781848  0.04964935  0.72808388     0.04200
C983        C  0.87114085  0.05131799  0.74799332     0.18400
C984        C  0.85088113  0.05208358  0.75220763    -0.19700
C985        C  0.88471352  0.05229134  0.76360265    -0.20900
C986        C  0.90484781  0.05161170  0.75986715    -0.19500
C987        C  0.91187578  0.04977274  0.74044909     0.19700
C988        C  0.89850843  0.04868899  0.72425336     0.01900
C989        C  0.90646416  0.04655774  0.70496724    -0.14200
C990        C  0.92681021  0.04557022  0.70193523    -0.11900
C991        C  0.93987698  0.04667740  0.71794764     0.01400
C992        C  0.93226326  0.04885361  0.73716723    -0.24100
H993        H  0.83303134  0.04924245  0.70511986     0.09400
H994        H  0.86723630  0.04798976  0.69741928     0.13000
H995        H  0.84615103  0.05345182  0.76747077     0.11700
H996        H  0.87972580  0.05361991  0.77881015     0.12900
H997        H  0.91499429  0.05242181  0.77226952     0.11900
H998        H  0.89739463  0.04543602  0.69190280     0.09000
H999        H  0.93230803  0.04376970  0.68697189     0.12300
H1000       H  0.94222551  0.04967898  0.74972563     0.14100
C1001       C  0.82733176  0.33358122  0.99643322    -0.01400
C1002       C  0.83880587  0.31638981  0.99435164    -0.09400
C1003       C  0.85917719  0.31747743  0.99211784    -0.18200
C1004       C  0.86911508  0.33592883  0.99197965     0.04200
C1005       C  0.85747999  0.35347862  0.99314593     0.18400
C1006       C  0.83673971  0.35217853  0.99525939    -0.19700
C1007       C  0.86672318  0.37212715  0.99258004    -0.20900
C1008       C  0.88723589  0.37370122  0.99134325    -0.19500
C1009       C  0.89911838  0.35667260  0.99078564     0.19700
C1010       C  0.89015213  0.33753466  0.99098300     0.01900
C1011       C  0.90267587  0.32078839  0.99062089    -0.14200
C1012       C  0.92310175  0.32285618  0.99028734    -0.11900
C1013       C  0.93206315  0.34166267  0.99023328     0.01400
C1014       C  0.91990590  0.35858471  0.99031358    -0.24100
H1015       H  0.83202406  0.30182286  0.99446203     0.09400
H1016       H  0.86672779  0.30342342  0.99065323     0.13000
H1017       H  0.82803103  0.36561310  0.99664648     0.11700
H1018       H  0.85803016  0.38561275  0.99330783     0.12900
H1019       H  0.89387712  0.38836749  0.99111393     0.11900
H1020       H  0.89719023  0.30569817  0.99084804     0.09000
H1021       H  0.93195796  0.30947648  0.99016280     0.12300
H1022       H  0.92659690  0.37324307  0.99026722     0.14100
C1023       C  0.84215420  0.07260102  0.27972185    -0.01400
C1024       C  0.85366717  0.08113172  0.26472487    -0.09400
C1025       C  0.87416652  0.08117197  0.26596960    -0.18200
C1026       C  0.88396210  0.07251366  0.28235333     0.04200
C1027       C  0.87223648  0.06445266  0.29788813     0.18400
C1028       C  0.85153846  0.06463117  0.29648608    -0.19700
C1029       C  0.88124593  0.05595598  0.31455546    -0.20900
C1030       C  0.90171148  0.05508590  0.31603697    -0.19500
C1031       C  0.91367244  0.06255119  0.30081639     0.19700
C1032       C  0.90494223  0.07137297  0.28374435     0.01900
C1033       C  0.91758858  0.07831225  0.26858315    -0.14200
C1034       C  0.93794291  0.07627603  0.27014882    -0.11900
C1035       C  0.94651724  0.06750559  0.28688948     0.01400
C1036       C  0.93433071  0.06091993  0.30235731    -0.24100
H1037       H  0.84684707  0.08781868  0.25182612     0.09400
H1038       H  0.88184373  0.08802549  0.25377862     0.13000
H1039       H  0.84280407  0.05799309  0.30821421     0.11700
H1040       H  0.87239945  0.04981865  0.32648004     0.12900
H1041       H  0.90822445  0.04830495  0.32907268     0.11900
H1042       H  0.91229043  0.08509148  0.25514400     0.09000
H1043       H  0.94706236  0.08158558  0.25804453     0.12300
H1044       H  0.94087737  0.05395821  0.31528898     0.14100
C1045       C  0.71042911  0.11635420  0.01774413    -0.01400
C1046       C  0.69533937  0.12774481  0.00931396    -0.09400
C1047       C  0.69601530  0.14847196  0.00996431    -0.18200
C1048       C  0.71182724  0.15851456  0.01933930     0.04200
C1049       C  0.72696672  0.14681469  0.02812535     0.18400
C1050       C  0.72616229  0.12598433  0.02720564    -0.19700
C1051       C  0.74298075  0.15595868  0.03753486    -0.20900
C1052       C  0.74459734  0.17653723  0.03796025    -0.19500
C1053       C  0.73016051  0.18848217  0.02912535     0.19700
C1054       C  0.71337314  0.17969178  0.02000930     0.01900
C1055       C  0.69900257  0.19250985  0.01179838    -0.14200
C1056       C  0.70162665  0.21309179  0.01189678    -0.11900
C1057       C  0.71858670  0.22167090  0.02019401     0.01400
C1058       C  0.73259193  0.20920806  0.02913682    -0.24100
H1059       H  0.68313715  0.12059414  0.00176690     0.09400
H1060       H  0.68405298  0.15616879  0.00279077     0.13000
H1061       H  0.73785419  0.11722525  0.03385751     0.11700
H1062       H  0.75449810  0.14712445  0.04436687     0.12900
H1063       H  0.75734631  0.18315574  0.04508682     0.11900
H1064       H  0.68564162  0.18712188  0.00501547     0.09000
H1065       H  0.69042015  0.22221229  0.00500523     0.12300
H1066       H  0.74558451  0.21556052  0.03601643     0.14100
C1067       C  0.70961359  0.05028135  0.07346712    -0.01400
C1068       C  0.69337905  0.05560751  0.08513357    -0.09400
C1069       C  0.69465477  0.05524672  0.10585740    -0.18200
C1070       C  0.71229771  0.04942575  0.11551285     0.04200
C1071       C  0.72847316  0.04352655  0.10346845     0.18400
C1072       C  0.72698552  0.04402422  0.08279894    -0.19700
C1073       C  0.74624179  0.03742602  0.11204692    -0.20900
C1074       C  0.74854752  0.03748209  0.13244291    -0.19500
C1075       C  0.73316463  0.04371635  0.14472949     0.19700
C1076       C  0.71469821  0.04954411  0.13658146     0.01900
C1077       C  0.69969860  0.05556197  0.14990867    -0.14200
C1078       C  0.70324566  0.05647369  0.17035355    -0.11900
C1079       C  0.72177245  0.05148208  0.17803461     0.01400
C1080       C  0.73642745  0.04461852  0.16516679    -0.24100
H1081       H  0.67978901  0.06050103  0.07823385     0.09400
H1082       H  0.68169602  0.05980033  0.11389237     0.13000
H1083       H  0.73958727  0.03966998  0.07391062     0.11700
H1084       H  0.75855178  0.03281207  0.10289719     0.12900
H1085       H  0.76260192  0.03293617  0.13863943     0.11900
H1086       H  0.68524449  0.06001566  0.14496077     0.09000
H1087       H  0.69169754  0.06178021  0.18008066     0.12300
H1088       H  0.75067288  0.04025943  0.17105030     0.14100
C1089       C  0.71174188  0.06155763  0.95199766    -0.01400
C1090       C  0.72901952  0.06928767  0.94360407    -0.09400
C1091       C  0.73118459  0.07071011  0.92314608    -0.18200
C1092       C  0.71610559  0.06419153  0.91020595     0.04200
C1093       C  0.69852932  0.05638029  0.91873771     0.18400
C1094       C  0.69636577  0.05543329  0.93948896    -0.19700
C1095       C  0.68346316  0.04912445  0.90649618    -0.20900
C1096       C  0.68561985  0.04912669  0.88595368    -0.19500
C1097       C  0.70274932  0.05671474  0.87710425     0.19700
C1098       C  0.71808607  0.06467981  0.88913829     0.01900
C1099       C  0.73487201  0.07262491  0.87956279    -0.14200
C1100       C  0.73679550  0.07179174  0.85906365    -0.11900
C1101       C  0.72207283  0.06323543  0.84725547     0.01400
C1102       C  0.70482530  0.05612473  0.85630683    -0.24100
H1103       H  0.74108507  0.07421272  0.95293696     0.09400
H1104       H  0.74505879  0.07659197  0.91800310     0.13000
H1105       H  0.68299671  0.04929001  0.94588233     0.11700
H1106       H  0.67004574  0.04308758  0.91286787     0.12900
H1107       H  0.67382967  0.04307676  0.87692533     0.11900
H1108       H  0.74687311  0.07954388  0.88743355     0.09000
H1109       H  0.75004062  0.07788183  0.85241261     0.12300
H1110       H  0.69334049  0.04953184  0.84724925     0.14100
C1111       C  0.71892790  0.88871860  0.00627997    -0.01400
C1112       C  0.70036270  0.89697652  0.01040496    -0.09400
C1113       C  0.69762750  0.91761441  0.01062706    -0.18200
C1114       C  0.71347509  0.93077253  0.00670025     0.04200
C1115       C  0.73222077  0.92228850  0.00255292     0.18400
C1116       C  0.73472418  0.90161615  0.00235807    -0.19700
C1117       C  0.74850932  0.93445159  0.99861899    -0.20900
C1118       C  0.74668285  0.95495894  0.99881357    -0.19500
C1119       C  0.72851890  0.96384252  0.00293696     0.19700
C1120       C  0.71155946  0.95197851  0.00682352     0.01900
C1121       C  0.69357435  0.96193490  0.01072448    -0.14200
C1122       C  0.69266921  0.98274484  0.01112321    -0.11900
C1123       C  0.70960403  0.99426340  0.00771221     0.01400
C1124       C  0.72738080  0.98462283  0.00339366    -0.24100
H1125       H  0.68781691  0.88753113  0.01356537     0.09400
H1126       H  0.68297431  0.92281617  0.01397487     0.13000
H1127       H  0.74917389  0.89567957  0.99906212     0.11700
H1128       H  0.76282687  0.92805122  0.99543653     0.12900
H1129       H  0.75963199  0.96395287  0.99580347     0.11900
H1130       H  0.68001960  0.95406248  0.01365506     0.09000
H1131       H  0.67872040  0.98982157  0.01445870     0.12300
H1132       H  0.74055379  0.99334234  0.00052947     0.14100
C1133       C  0.37014750  0.06657545  0.57817942    -0.01400
C1134       C  0.37881166  0.07164409  0.59635507    -0.09400
C1135       C  0.36803940  0.07059752  0.61398461    -0.18200
C1136       C  0.34813044  0.06427835  0.61403145     0.04200
C1137       C  0.33941820  0.05919139  0.59551300     0.18400
C1138       C  0.35040002  0.06041910  0.57790629    -0.19700
C1139       C  0.31976470  0.05289558  0.59462546    -0.20900
C1140       C  0.30843657  0.05174113  0.61172217    -0.19500
C1141       C  0.31650417  0.05676732  0.63015098     0.19700
C1142       C  0.33649809  0.06292979  0.63168577     0.01900
C1143       C  0.34387085  0.06746098  0.65081567    -0.14200
C1144       C  0.33172871  0.06634955  0.66757744    -0.11900
C1145       C  0.31189769  0.06071456  0.66586889     0.01400
C1146       C  0.30454532  0.05571112  0.64705839    -0.24100
H1147       H  0.39398263  0.07666682  0.59698993     0.09400
H1148       H  0.37569996  0.07489769  0.62730340     0.13000
H1149       H  0.34357267  0.05626810  0.56398291     0.11700
H1150       H  0.31305901  0.04893876  0.58058013     0.12900
H1151       H  0.29320585  0.04694294  0.61050367     0.11900
H1152       H  0.35892279  0.07198048  0.65331982     0.09000
H1153       H  0.33787663  0.07019914  0.68187822     0.12300
H1154       H  0.28941518  0.05083695  0.64539393     0.14100
C1155       C  0.37743378  0.06531839  0.41449443    -0.01400
C1156       C  0.38720082  0.05960436  0.39706429    -0.09400
C1157       C  0.37742142  0.05959246  0.37873725    -0.18200
C1158       C  0.35740655  0.06536278  0.37719457     0.04200
C1159       C  0.34761507  0.07114176  0.39492113     0.18400
C1160       C  0.35759407  0.07105757  0.41317275    -0.19700
C1161       C  0.32782915  0.07697734  0.39442351    -0.20900
C1162       C  0.31739995  0.07700139  0.37672562    -0.19500
C1163       C  0.32645870  0.07115363  0.35904442     0.19700
C1164       C  0.34662793  0.06542712  0.35886766     0.01900
C1165       C  0.35491423  0.05987516  0.34039320    -0.14200
C1166       C  0.34338386  0.05925871  0.32308266    -0.11900
C1167       C  0.32329428  0.06421818  0.32357164     0.01400
C1168       C  0.31520229  0.07067939  0.34159804    -0.24100
H1169       H  0.40246690  0.05494747  0.39752092     0.09400
H1170       H  0.38587946  0.05491718  0.36605414     0.13000
H1171       H  0.34978191  0.07569754  0.42636401     0.11700
H1172       H  0.32029925  0.08144154  0.40786782     0.12900
H1173       H  0.30203039  0.08143534  0.37691627     0.11900
H1174       H  0.37017539  0.05564361  0.33892187     0.09000
H1175       H  0.35014275  0.05439096  0.30939670     0.12300
H1176       H  0.29989461  0.07518645  0.34226421     0.14100
C1177       C  0.63006240  0.05617993  0.59342579    -0.01400
C1178       C  0.62019823  0.05956446  0.61139335    -0.09400
C1179       C  0.63036462  0.05932297  0.62948255    -0.18200
C1180       C  0.65090854  0.05569559  0.63025329     0.04200
C1181       C  0.66083485  0.05226230  0.61200638     0.18400
C1182       C  0.65043604  0.05247713  0.59398890    -0.19700
C1183       C  0.68117152  0.04874426  0.61175972    -0.20900
C1184       C  0.69198863  0.04885676  0.62923059    -0.19500
C1185       C  0.68274478  0.05240299  0.64742670     0.19700
C1186       C  0.66205184  0.05561596  0.64833198     0.01900
C1187       C  0.65357240  0.05874479  0.66726991    -0.14200
C1188       C  0.66529029  0.05936911  0.68441024    -0.11900
C1189       C  0.68579434  0.05685004  0.68330100     0.01400
C1190       C  0.69425259  0.05297378  0.66470095    -0.24100
H1191       H  0.60452687  0.06257733  0.61157367     0.09400
H1192       H  0.62176103  0.06219002  0.64259881     0.13000
H1193       H  0.65840163  0.04968625  0.58037833     0.11700
H1194       H  0.68882348  0.04607101  0.59791112     0.12900
H1195       H  0.70776038  0.04629953  0.62847695     0.11900
H1196       H  0.63795219  0.06092517  0.66929651     0.09000
H1197       H  0.65824540  0.06217936  0.69852047     0.12300
H1198       H  0.70995913  0.05043251  0.66345266     0.14100
C1199       C  0.63709800  0.05593677  0.43079246    -0.01400
C1200       C  0.65772495  0.05593781  0.43220674    -0.09400
C1201       C  0.66948820  0.05649473  0.41530211    -0.18200
C1202       C  0.66102728  0.05699991  0.39615454     0.04200
C1203       C  0.64012317  0.05733793  0.39467902     0.18400
C1204       C  0.62841274  0.05676118  0.41188229    -0.19700
C1205       C  0.63103741  0.05818359  0.37603747    -0.20900
C1206       C  0.64230036  0.05853254  0.35878697    -0.19500
C1207       C  0.66292779  0.05788247  0.35973815     0.19700
C1208       C  0.67256498  0.05710182  0.37845691     0.01900
C1209       C  0.69335999  0.05620258  0.37866446    -0.14200
C1210       C  0.70410994  0.05609298  0.36112371    -0.11900
C1211       C  0.69469189  0.05698314  0.34262229     0.01400
C1212       C  0.67400254  0.05788381  0.34207603    -0.24100
H1213       H  0.66503643  0.05543676  0.44644115     0.09400
H1214       H  0.68517005  0.05652081  0.41782793     0.13000
H1215       H  0.61251138  0.05693311  0.41041112     0.11700
H1216       H  0.61509641  0.05853483  0.37478319     0.12900
H1217       H  0.63481312  0.05915531  0.34459601     0.11900
H1218       H  0.70186690  0.05537161  0.39211714     0.09000
H1219       H  0.71997812  0.05516017  0.36231075     0.12300
H1220       H  0.66643430  0.05859023  0.32794876     0.14100
C1221       C  0.57397180  0.42395413  0.98756464    -0.01400
C1222       C  0.57420086  0.40487644  0.97923655    -0.09400
C1223       C  0.59168430  0.39401147  0.97790904    -0.18200
C1224       C  0.60974644  0.40184353  0.98496328     0.04200
C1225       C  0.60956480  0.42130291  0.99311813     0.18400
C1226       C  0.59182628  0.43209516  0.99435133    -0.19700
C1227       C  0.62707543  0.42984070  0.00014541    -0.20900
C1228       C  0.64476059  0.41938079  0.99950063    -0.19500
C1229       C  0.64539390  0.40003451  0.99195610     0.19700
C1230       C  0.62790080  0.39101061  0.98447044     0.01900
C1231       C  0.62928842  0.37138295  0.97720219    -0.14200
C1232       C  0.64703793  0.36096446  0.97803626    -0.11900
C1233       C  0.66412352  0.36968750  0.98590394     0.01400
C1234       C  0.66331922  0.38944258  0.99237211    -0.24100
H1235       H  0.56081857  0.39821588  0.97353975     0.09400
H1236       H  0.59051453  0.37950909  0.97128223     0.13000
H1237       H  0.59196456  0.44678371  0.00088146     0.11700
H1238       H  0.62707677  0.44469888  0.00631620     0.12900
H1239       H  0.65799906  0.42638159  0.00522243     0.11900
H1240       H  0.61685690  0.36347461  0.97112510     0.09000
H1241       H  0.64729828  0.34583057  0.97261976     0.12300
H1242       H  0.67642614  0.39629424  0.99856751     0.14100
C1243       C  0.32212916  0.36840122  0.98448224    -0.01400
C1244       C  0.33901410  0.35993415  0.97606286    -0.09400
C1245       C  0.35661155  0.37050566  0.97484570    -0.18200
C1246       C  0.35804043  0.39007514  0.98219089     0.04200
C1247       C  0.34062031  0.39909017  0.98975562     0.18400
C1248       C  0.32283391  0.38822226  0.99081337    -0.19700
C1249       C  0.34119471  0.41875760  0.99647499    -0.20900
C1250       C  0.35871603  0.42960591  0.99594166    -0.19500
C1251       C  0.37619783  0.42092999  0.98906462     0.19700
C1252       C  0.37614337  0.40095503  0.98229914     0.01900
C1253       C  0.39430707  0.39258093  0.97631204    -0.14200
C1254       C  0.41168651  0.40365411  0.97670150    -0.11900
C1255       C  0.41169485  0.42345144  0.98302972     0.01400
C1256       C  0.39382302  0.43201518  0.98916265    -0.24100
H1257       H  0.33871364  0.34487373  0.97044559     0.09400
H1258       H  0.36881428  0.36286880  0.96807013     0.13000
H1259       H  0.30977962  0.39494456  0.99719630     0.11700
H1260       H  0.32800578  0.42580028  0.00218748     0.12900
H1261       H  0.35864837  0.44481389  0.00120429     0.11900
H1262       H  0.39570419  0.37739918  0.97149878     0.09000
H1263       H  0.42517417  0.39658605  0.97186683     0.12300
H1264       H  0.39362191  0.44720649  0.99443470     0.14100
C1265       C  0.57003708  0.68423625  0.00181769    -0.01400
C1266       C  0.58794090  0.67404836  0.99975438    -0.09400
C1267       C  0.60594708  0.68366671  0.00278879    -0.18200
C1268       C  0.60668540  0.70396075  0.00807720     0.04200
C1269       C  0.58845966  0.71420115  0.01033621     0.18400
C1270       C  0.57043852  0.70434584  0.00712702    -0.19700
C1271       C  0.58830620  0.73426726  0.01568860    -0.20900
C1272       C  0.60587928  0.74455672  0.01839776    -0.19500
C1273       C  0.62405002  0.73505259  0.01577566     0.19700
C1274       C  0.62479183  0.71456011  0.01086227     0.01900
C1275       C  0.64362929  0.70574309  0.00863616    -0.14200
C1276       C  0.66090450  0.71705206  0.01028321    -0.11900
C1277       C  0.66003434  0.73743955  0.01434506     0.01400
C1278       C  0.64149412  0.74613310  0.01762310    -0.24100
H1279       H  0.58812669  0.65854782  0.99551107     0.09400
H1280       H  0.61901585  0.67481305  0.00075862     0.13000
H1281       H  0.55669886  0.71234049  0.00900479     0.11700
H1282       H  0.57448951  0.74213020  0.01758032     0.12900
H1283       H  0.60524581  0.76016827  0.02227354     0.11900
H1284       H  0.64552696  0.69022169  0.00526524     0.09000
H1285       H  0.67494811  0.70982624  0.00786797     0.12300
H1286       H  0.64045392  0.76173214  0.02133779     0.14100
C1287       C  0.40756919  0.68306409  0.98279112    -0.01400
C1288       C  0.40718484  0.70225616  0.97473505    -0.09400
C1289       C  0.38956785  0.71284028  0.97329090    -0.18200
C1290       C  0.37154089  0.70457995  0.97997937     0.04200
C1291       C  0.37194180  0.68513089  0.98821756     0.18400
C1292       C  0.38980396  0.67454700  0.98940101    -0.19700
C1293       C  0.35455492  0.67645878  0.99544474    -0.20900
C1294       C  0.33677949  0.68679375  0.99489514    -0.19500
C1295       C  0.33588500  0.70599483  0.98692076     0.19700
C1296       C  0.35322661  0.71504355  0.97909234     0.01900
C1297       C  0.35151495  0.73425631  0.97082623    -0.14200
C1298       C  0.33363880  0.74437684  0.97115614    -0.11900
C1299       C  0.31676253  0.73582783  0.97965013     0.01400
C1300       C  0.31783812  0.71638465  0.98705743    -0.24100
H1301       H  0.42057236  0.70920154  0.96935178     0.09400
H1302       H  0.39066167  0.72752933  0.96703621     0.13000
H1303       H  0.38987422  0.65980282  0.99588133     0.11700
H1304       H  0.35474119  0.66163892  0.00177199     0.12900
H1305       H  0.32365485  0.67974873  0.00084462     0.11900
H1306       H  0.36370752  0.74198795  0.96407766     0.09000
H1307       H  0.33314366  0.75915155  0.96478933     0.12300
H1308       H  0.30484534  0.70961142  0.99358884     0.14100
loop_ 
_geom_bond_atom_site_label_1 
_geom_bond_atom_site_label_2 
_geom_bond_distance 
_geom_bond_site_symmetry_2 
_ccdc_geom_bond_type 
N1            N2   1.323       .  A
N1            C5   1.345       .  A
N1           Cu9   2.082       .  S
N2            C3   1.346       .  A
N2           Cu8   2.078       .  S
C3            C4   1.387       .  A
C3            H6   1.081       .  S
C4            C5   1.388       .  A
C4         C1287   1.486       .  S
C5            H7   1.081       .  S
Cu8          N11   2.078       .  S
Cu9          N19   2.082       .  S
Cu10         N12   2.060       .  S
Cu10         N18   2.060       .  S
N11          N12   1.321       .  A
N11          C15   1.345       .  A
N12          C13   1.344   1_556  A
C13          C14   1.381       .  A
C13          H16   1.082       .  S
C14          C15   1.385   1_554  A
C14          C38   1.470   1_554  S
C15          H17   1.082       .  S
N18          N19   1.321       .  A
N18          C22   1.341   1_556  A
N19          C20   1.347       .  A
C20          C21   1.390       .  A
C20          H23   1.082       .  S
C21          C22   1.383   1_556  A
C21        C1265   1.482   1_556  S
C22          H24   1.081       .  S
N25          N26   1.320       .  A
N25          C29   1.343       .  A
N25         Cu33   2.074       .  S
N26          C27   1.344       .  A
N26         Cu32   2.062       .  S
C27          C28   1.386       .  A
C27          H30   1.081       .  S
C28          C29   1.388       .  A
C28        C1255   1.484       .  S
C29          H31   1.081       .  S
Cu32         N35   2.063       .  S
Cu33         N43   2.074       .  S
Cu34         N36   2.086       .  S
Cu34         N42   2.086       .  S
N35          N36   1.323       .  A
N35          C39   1.343       .  A
N36          C37   1.347   1_556  A
C37          C38   1.385   1_554  A
C37          H40   1.082       .  S
C38          C39   1.379       .  A
C39          H41   1.082       .  S
N42          N43   1.321       .  A
N42          C46   1.348       .  A
N43          C44   1.344       .  A
C44          C45   1.388       .  A
C44          H47   1.081       .  S
C45          C46   1.390       .  A
C45        C1221   1.490       .  S
C46          H48   1.081       .  S
N49          N50   1.319       .  A
N49          C53   1.342       .  A
N49         Cu57   2.071       .  S
N50          C51   1.344       .  A
N50         Cu56   2.062       .  S
C51          C52   1.388       .  A
C51          H54   1.081       .  S
C52          C53   1.389       .  A
C52        C1199   1.486       .  S
C53          H55   1.080       .  S
Cu56         N59   2.063       .  S
Cu57         N67   2.071       .  S
Cu58         N60   2.088       .  S
Cu58         N66   2.087       .  S
N59          N60   1.324       .  A
N59          C63   1.343       .  A
N60          C61   1.346       .  A
C61          C62   1.385       .  A
C61          H64   1.082       .  S
C62          C63   1.379       .  A
C62          C86   1.470       .  S
C63          H65   1.082       .  S
N66          N67   1.321       .  A
N66          C70   1.348       .  A
N67          C68   1.343       .  A
C68          C69   1.389       .  A
C68          H71   1.081       .  S
C69          C70   1.392       .  A
C69        C1177   1.492       .  S
C70          H72   1.081       .  S
N73          N74   1.322       .  A
N73          C77   1.344       .  A
N73         Cu81   2.081       .  S
N74          C75   1.347       .  A
N74         Cu80   2.083       .  S
C75          C76   1.390       .  A
C75          H78   1.081       .  S
C76          C77   1.390       .  A
C76        C1155   1.492       .  S
C77          H79   1.081       .  S
Cu80         N83   2.083       .  S
Cu81         N91   2.080       .  S
Cu82         N84   2.062       .  S
Cu82         N90   2.062       .  S
N83          N84   1.322       .  A
N83          C87   1.346       .  A
N84          C85   1.344       .  A
C85          C86   1.380       .  A
C85          H88   1.082       .  S
C86          C87   1.385       .  A
C87          H89   1.082       .  S
N90          N91   1.321       .  A
N90          C94   1.343       .  A
N91          C92   1.346       .  A
C92          C93   1.389       .  A
C92          H95   1.082       .  S
C93          C94   1.384       .  A
C93        C1133   1.482       .  S
C94          H96   1.082       .  S
O97        Cu105   2.024       .  S
O97         C107   1.280       .  A
O98        Cu105   2.023   1_556  S
O98         C108   1.280       .  A
O99        Cu105   2.020       .  S
O99         C109   1.279       .  A
O100       Cu105   2.014       .  S
O100        C110   1.279       .  A
O101       Cu106   2.001       .  S
O101        C110   1.277       .  A
O102       Cu106   2.002       .  S
O102        C109   1.278       .  A
O103       Cu106   1.988   1_556  S
O103        C108   1.276       .  A
O104       Cu106   1.984       .  S
O104        C107   1.276       .  A
Cu105      Cu106   2.370       .  S
C107       C1067   1.477       .  S
C108       C1089   1.477       .  S
C109       C1123   1.483   1_545  S
C110       C1045   1.476       .  S
N111        N112   1.322       .  A
N111        C115   1.350       .  A
N111       Cu119   2.087       .  S
N112        C113   1.337       .  A
N112       Cu118   2.054       .  S
C113        C114   1.379       .  A
C113        H116   1.082       .  S
C114        C115   1.389       .  A
C114       C1079   1.477       .  S
C115        H117   1.082       .  S
Cu118       N121   2.053       .  S
Cu119       N129   2.088       .  S
Cu120       N122   2.058       .  S
Cu120       N128   2.059       .  S
N121        N122   1.316       .  A
N121        C125   1.340       .  A
N122        C123   1.345       .  A
C123        C124   1.388       .  A
C123        H126   1.081       .  S
C124        C125   1.386       .  A
C124       C1023   1.479       .  S
C125        H127   1.081       .  S
N128        N129   1.322       .  A
N128        C132   1.337       .  A
N129        C130   1.349       .  A
C130        C131   1.392       .  A
C130        H133   1.081       .  S
C131        C132   1.383       .  A
C131       C1211   1.486       .  S
C132        H134   1.080       .  S
N135        N136   1.323       .  A
N135        C139   1.355   1_554  A
N135       Cu143   2.108   1_554  S
N136        C137   1.339       .  A
N136       Cu142   2.066       .  S
C137        C138   1.383       .  A
C137        H140   1.082       .  S
C138        C139   1.394   1_554  A
C138       C1001   1.490   1_554  S
C139        H141   1.082       .  S
Cu142       N145   2.065       .  S
Cu143       N153   2.108       .  S
Cu144       N146   2.058       .  S
Cu144       N152   2.059   1_554  S
N145        N146   1.317       .  A
N145        C149   1.343       .  A
N146        C147   1.343       .  A
C147        C148   1.389       .  A
C147        H150   1.081       .  S
C148        C149   1.390       .  A
C148       C1057   1.486       .  S
C149        H151   1.081       .  S
N152        N153   1.324       .  A
N152        C156   1.339       .  A
N153        C154   1.353       .  A
C154        C155   1.393       .  A
C154        H157   1.082       .  S
C155        C156   1.379       .  A
C155       C1233   1.484       .  S
C156        H158   1.082       .  S
O159       Cu167   2.022       .  S
O159        C169   1.281       .  A
O160       Cu167   2.024   1_455  S
O160        C170   1.280       .  A
O161       Cu167   2.022       .  S
O161        C171   1.279       .  A
O162       Cu167   2.019   1_455  S
O162        C172   1.278       .  A
O163       Cu168   1.999       .  S
O163        C172   1.279       .  A
O164       Cu168   1.996   1_655  S
O164        C171   1.278       .  A
O165       Cu168   1.971       .  S
O165        C170   1.273       .  A
O166       Cu168   1.979   1_655  S
O166        C169   1.274       .  A
Cu167      Cu168   2.371   1_655  S
C169        C991   1.477       .  S
C170        C913   1.467       .  S
C171        C957   1.483   1_545  S
C172        C935   1.481       .  S
N173        N174   1.323   1_455  A
N173        C177   1.352       .  A
N173       Cu181   2.092       .  S
N174        C175   1.337       .  A
N174       Cu180   2.060       .  S
C175        C176   1.381   1_655  A
C175        H178   1.082       .  S
C176        C177   1.390       .  A
C176        C947   1.481       .  S
C177        H179   1.082       .  S
Cu180       N183   2.060   1_655  S
Cu181       N191   2.093       .  S
Cu182       N184   2.069       .  S
Cu182       N190   2.071       .  S
N183        N184   1.317       .  A
N183        C187   1.342   1_455  A
N184        C185   1.347       .  A
C185        C186   1.390       .  A
C185        H188   1.081       .  S
C186        C187   1.387   1_455  A
C186        C891   1.485   1_455  S
C187        H189   1.081       .  S
N190        N191   1.324       .  A
N190        C194   1.338       .  A
N191        C192   1.352       .  A
C192        C193   1.391       .  A
C192        H195   1.082       .  S
C193        C194   1.383       .  A
C193        C869   1.486       .  S
C194        H196   1.081       .  S
N197        N198   1.323       .  A
N197        C201   1.351       .  A
N197       Cu205   2.100       .  S
N198        C199   1.339       .  A
N198       Cu204   2.058       .  S
C199        C200   1.381       .  A
C199        H202   1.082       .  S
C200        C201   1.392       .  A
C200        C859   1.484       .  S
C201        H203   1.082       .  S
Cu204       N207   2.056       .  S
Cu205       N215   2.100       .  S
Cu206       N208   2.051       .  S
Cu206       N214   2.051       .  S
N207        N208   1.317       .  A
N207        C211   1.342       .  A
N208        C209   1.341       .  A
C209        C210   1.386       .  A
C209        H212   1.081       .  S
C210        C211   1.388       .  A
C210        C925   1.479       .  S
C211        H213   1.081       .  S
N214        N215   1.322       .  A
N214        C218   1.337       .  A
N215        C216   1.351       .  A
C216        C217   1.394       .  A
C216        H219   1.081       .  S
C217        C218   1.382       .  A
C217       C1145   1.487       .  S
C218        H220   1.081       .  S
O221       Cu229   2.029       .  S
O221        C231   1.280       .  A
O222       Cu229   2.033   1_554  S
O222        C232   1.280       .  A
O223       Cu229   2.042       .  S
O223        C233   1.282       .  A
O224       Cu229   2.036       .  S
O224        C234   1.281       .  A
O225       Cu230   1.980       .  S
O225        C234   1.275       .  A
O226       Cu230   1.980       .  S
O226        C233   1.275       .  A
O227       Cu230   2.011   1_554  S
O227        C232   1.279       .  A
O228       Cu230   2.006       .  S
O228        C231   1.279       .  A
Cu229      Cu230   2.368       .  S
C231        C847   1.487       .  S
C232        C803   1.488       .  S
C233        C825   1.482   1_545  S
C234        C793   1.481   1_556  S
O235       Cu243   2.027   1_655  S
O235        C245   1.280       .  A
O236       Cu243   2.033       .  S
O236        C246   1.281       .  A
O237       Cu243   2.032       .  S
O237        C247   1.280       .  A
O238       Cu243   2.029       .  S
O238        C248   1.280       .  A
O239       Cu244   1.994       .  S
O239        C248   1.278       .  A
O240       Cu244   1.996       .  S
O240        C247   1.277       .  A
O241       Cu244   1.986       .  S
O241        C246   1.276       .  A
O242       Cu244   1.984   1_655  S
O242        C245   1.275       .  A
Cu243      Cu244   2.369       .  S
C245       C1035   1.476       .  S
C246        C715   1.481       .  S
C247        C749   1.482       .  S
C248        C759   1.484   1_445  S
O249       Cu257   2.036   1_455  S
O249        C259   1.281       .  A
O250       Cu257   2.045       .  S
O250        C260   1.282       .  A
O251       Cu257   2.027   1_554  S
O251        C261   1.280       .  A
O252       Cu257   2.029       .  S
O252        C262   1.280       .  A
O253       Cu258   1.987       .  S
O253        C262   1.275       .  A
O254       Cu258   1.987   1_554  S
O254        C261   1.276       .  A
O255       Cu258   1.993       .  S
O255        C260   1.277       .  A
O256       Cu258   2.004   1_455  S
O256        C259   1.278       .  A
Cu257      Cu258   2.370       .  S
C259        C671   1.490       .  S
C260       C1013   1.490       .  S
C261        C705   1.477       .  S
C262        C903   1.474       .  S
N263        N264   1.323       .  A
N263        C267   1.351       .  A
N263       Cu271   2.092       .  S
N264        C265   1.340       .  A
N264       Cu270   2.068       .  S
C265        C266   1.381       .  A
C265        H268   1.082       .  S
C266        C267   1.388       .  A
C266        C737   1.479       .  S
C267        H269   1.082       .  S
Cu270       N273   2.067       .  S
Cu271       N281   2.093       .  S
Cu272       N274   2.061       .  S
Cu272       N280   2.063       .  S
N273        N274   1.318       .  A
N273        C277   1.342   1_455  A
N274        C275   1.345       .  A
C275        C276   1.387   1_455  A
C275        H278   1.082       .  S
C276        C277   1.388       .  A
C276        C693   1.482       .  S
C277        H279   1.082       .  S
N280        N281   1.323       .  A
N280        C284   1.339       .  A
N281        C282   1.350       .  A
C282        C283   1.390       .  A
C282        H285   1.082       .  S
C283        C284   1.382       .  A
C283        C649   1.482       .  S
C284        H286   1.082       .  S
N287        N288   1.322       .  A
N287        C291   1.358       .  A
N287       Cu295   2.120       .  S
N288        C289   1.338       .  A
N288       Cu294   2.059       .  S
C289        C290   1.381       .  A
C289        H292   1.082       .  S
C290        C291   1.398       .  A
C290        C815   1.493       .  S
C291        H293   1.082       .  S
Cu294       N297   2.058       .  S
Cu295       N305   2.121       .  S
Cu296       N298   2.069       .  S
Cu296       N304   2.072       .  S
N297        N298   1.317       .  A
N297        C301   1.340       .  A
N298        C299   1.348       .  A
C299        C300   1.391       .  A
C299        H302   1.081       .  S
C300        C301   1.387       .  A
C300        C727   1.486       .  S
C301        H303   1.081       .  S
N304        N305   1.326       .  A
N304        C308   1.340       .  A
N305        C306   1.355       .  A
C306        C307   1.395       .  A
C306        H309   1.081       .  S
C307        C308   1.383       .  A
C307       C1167   1.493       .  S
C308        H310   1.081       .  S
N311        N312   1.322       .  A
N311        C315   1.353       .  A
N311       Cu319   2.100       .  S
N312        C313   1.340       .  A
N312       Cu318   2.070       .  S
C313        C314   1.386       .  A
C313        H316   1.081       .  S
C314        C315   1.394       .  A
C314        C683   1.493       .  S
C315        H317   1.082       .  S
Cu318       N321   2.069   1_556  S
Cu319       N329   2.101       .  S
Cu320       N322   2.059   1_556  S
Cu320       N328   2.061       .  S
N321        N322   1.317       .  A
N321        C325   1.341       .  A
N322        C323   1.347       .  A
C323        C324   1.388       .  A
C323        H326   1.082       .  S
C324        C325   1.389       .  A
C324        C781   1.484       .  S
C325        H327   1.081       .  S
N328        N329   1.324       .  A
N328        C332   1.337       .  A
N329        C330   1.352       .  A
C330        C331   1.390       .  A
C330        H333   1.082       .  S
C331        C332   1.379       .  A
C331       C1243   1.480       .  S
C332        H334   1.082       .  S
O335       Cu343   1.990   1_554  S
O335        C345   1.277       .  A
O336       Cu343   1.995   1_455  S
O336        C346   1.278       .  A
O337       Cu343   1.984       .  S
O337        C347   1.275       .  A
O338       Cu343   1.989   1_554  S
O338        C348   1.276       .  A
O339       Cu344   2.038       .  S
O339        C348   1.282       .  A
O340       Cu344   2.032   1_556  S
O340        C347   1.280       .  A
O341       Cu344   2.026   1_456  S
O341        C346   1.280       .  A
O342       Cu344   2.034       .  S
O342        C345   1.280       .  A
Cu343      Cu344   2.369   1_556  S
C345        C605   1.486       .  S
C346        C561   1.484       .  S
C347        C627   1.472       .  S
C348        C583   1.485       .  S
N349        N350   1.323       .  A
N349        C353   1.354       .  A
N349       Cu357   2.098       .  S
N350        C351   1.337       .  A
N350       Cu356   2.065       .  S
C351        C352   1.382       .  A
C351        H354   1.081       .  S
C352        C353   1.392       .  A
C352        C771   1.486       .  S
C353        H355   1.082       .  S
Cu356       N359   2.065       .  S
Cu357       N367   2.099       .  S
Cu358       N360   2.066       .  S
Cu358       N366   2.067       .  S
N359        N360   1.317       .  A
N359        C363   1.343       .  A
N360        C361   1.346       .  A
C361        C362   1.391       .  A
C361        H364   1.081       .  S
C362        C363   1.390       .  A
C362        C595   1.489       .  S
C363        H365   1.081       .  S
N366        N367   1.324       .  A
N366        C370   1.339       .  A
N367        C368   1.351       .  A
C368        C369   1.391       .  A
C368        H371   1.082       .  S
C369        C370   1.382       .  A
C369        C539   1.486       .  S
C370        H372   1.081       .  S
N373        N374   1.323       .  A
N373        C377   1.351       .  A
N373       Cu381   2.096       .  S
N374        C375   1.338       .  A
N374       Cu380   2.071       .  S
C375        C376   1.385       .  A
C375        H378   1.080       .  S
C376        C377   1.392       .  A
C376        C573   1.491       .  S
C377        H379   1.081       .  S
Cu380       N383   2.070       .  S
Cu381       N391   2.096       .  S
Cu382       N384   2.050       .  S
Cu382       N390   2.051       .  S
N383        N384   1.316       .  A
N383        C387   1.344       .  A
N384        C385   1.343       .  A
C385        C386   1.386       .  A
C385        H388   1.081       .  S
C386        C387   1.391       .  A
C386        C837   1.484       .  S
C387        H389   1.081       .  S
N390        N391   1.322       .  A
N390        C394   1.336       .  A
N391        C392   1.352       .  A
C392        C393   1.392       .  A
C392        H395   1.082       .  S
C393        C394   1.379       .  A
C393       C1299   1.481       .  S
C394        H396   1.082       .  S
N397        N398   1.324       .  A
N397        C401   1.350       .  A
N397       Cu405   2.092   1_655  S
N398        C399   1.342       .  A
N398       Cu404   2.076       .  S
C399        C400   1.383       .  A
C399        H402   1.082       .  S
C400        C401   1.388       .  A
C400        C969   1.481       .  S
C401        H403   1.082   1_655  S
Cu404       N407   2.075       .  S
Cu405       N415   2.092       .  S
Cu406       N408   2.061       .  S
Cu406       N414   2.061   1_655  S
N407        N408   1.319       .  A
N407        C411   1.345       .  A
N408        C409   1.344       .  A
C409        C410   1.386       .  A
C409        H412   1.082       .  S
C410        C411   1.389       .  A
C410        C639   1.483       .  S
C411        H413   1.082       .  S
N414        N415   1.322       .  A
N414        C418   1.340       .  A
N415        C416   1.349       .  A
C416        C417   1.392       .  A
C416        H419   1.081       .  S
C417        C418   1.383       .  A
C417        C517   1.486       .  S
C418        H420   1.081       .  S
N421        N422   1.323       .  A
N421        C425   1.353       .  A
N421       Cu429   2.104       .  S
N422        C423   1.337       .  A
N422       Cu428   2.053       .  S
C423        C424   1.378       .  A
C423        H426   1.082       .  S
C424        C425   1.392       .  A
C424       C1101   1.480       .  S
C425        H427   1.082       .  S
Cu428       N431   2.052       .  S
Cu429       N439   2.105       .  S
Cu430       N432   2.060       .  S
Cu430       N438   2.062       .  S
N431        N432   1.316       .  A
N431        C435   1.342       .  A
N432        C433   1.342       .  A
C433        C434   1.389       .  A
C433        H436   1.081       .  S
C434        C435   1.388       .  A
C434        C979   1.483       .  S
C435        H437   1.081       .  S
N438        N439   1.323       .  A
N438        C442   1.339       .  A
N439        C440   1.352       .  A
C440        C441   1.395       .  A
C440        H443   1.081       .  S
C441        C442   1.384       .  A
C441       C1189   1.491       .  S
C442        H444   1.080       .  S
N445        N446   1.322       .  A
N445        C449   1.354       .  A
N445       Cu453   2.100       .  S
N446        C447   1.337       .  A
N446       Cu452   2.068       .  S
C447        C448   1.386       .  A
C447        H450   1.080       .  S
C448        C449   1.395       .  A
C448        C617   1.493       .  S
C449        H451   1.082       .  S
Cu452       N455   2.068       .  S
Cu453       N463   2.101       .  S
Cu454       N456   2.062       .  S
Cu454       N462   2.064       .  S
N455        N456   1.316       .  A
N455        C459   1.342       .  A
N456        C457   1.346       .  A
C457        C458   1.390       .  A
C457        H460   1.081       .  S
C458        C459   1.391       .  A
C458       C1111   1.490       .  S
C459        H461   1.080       .  S
N462        N463   1.324       .  A
N462        C466   1.339       .  A
N463        C464   1.351       .  A
C464        C465   1.393       .  A
C464        H467   1.081       .  S
C465        C466   1.383       .  A
C465       C1277   1.488       .  S
C466        H468   1.081       .  S
N469        N470   1.322       .  A
N469        C473   1.343       .  A
N469       Cu477   2.090       .  S
N470        C471   1.347       .  A
N470       Cu476   2.070       .  S
C471        C472   1.386       .  A
C471        H474   1.082       .  S
C472        C473   1.390       .  A
C472        C881   1.487       .  S
C473        H475   1.081       .  S
Cu476       N479   2.070       .  S
Cu477       N487   2.089       .  S
Cu478       N480   2.067       .  S
Cu478       N486   2.066       .  S
N479        N480   1.322       .  A
N479        C483   1.343       .  A
N480        C481   1.345       .  A
C481        C482   1.382       .  A
C481        H484   1.082       .  S
C482        C483   1.382       .  A
C482        C506   1.468       .  S
C483        H485   1.082       .  S
N486        N487   1.321       .  A
N486        C490   1.342       .  A
N487        C488   1.348       .  A
C488        C489   1.393       .  A
C488        H491   1.081       .  S
C489        C490   1.387       .  A
C489        C529   1.491       .  S
C490        H492   1.081       .  S
N493        N494   1.321       .  A
N493        C497   1.344       .  A
N493       Cu501   2.084       .  S
N494        C495   1.346       .  A
N494       Cu500   2.069       .  S
C495        C496   1.387       .  A
C495        H498   1.081       .  S
C496        C497   1.390       .  A
C496        C661   1.488       .  S
C497        H499   1.081       .  S
Cu500       N503   2.069       .  S
Cu501       N511   2.084       .  S
Cu502       N504   2.073       .  S
Cu502       N510   2.072       .  S
N503        N504   1.323       .  A
N503        C507   1.343       .  A
N504        C505   1.345       .  A
C505        C506   1.383       .  A
C505        H508   1.082       .  S
C506        C507   1.381       .  A
C507        H509   1.082       .  S
N510        N511   1.322       .  A
N510        C514   1.345       .  A
N511        C512   1.346       .  A
C512        C513   1.389       .  A
C512        H515   1.082       .  S
C513        C514   1.386       .  A
C513        C551   1.485       .  S
C514        H516   1.082       .  S
C517        C518   1.401       .  A
C517        C522   1.404       .  A
C518        C519   1.399       .  A
C518        H531   1.082       .  S
C519        C520   1.417       .  A
C519        H532   1.077       .  S
C520        C526   1.432       .  A
C520        C521   1.421       .  A
C521        C523   1.400       .  A
C521        C522   1.404       .  A
C522        H533   1.083       .  S
C523        C524   1.389       .  A
C523        H534   1.084       .  S
C524        C525   1.399       .  A
C524        H535   1.084       .  S
C525        C526   1.423       .  A
C525        C530   1.407       .  A
C526        C527   1.412       .  A
C527        C528   1.396       .  A
C527        H536   1.077       .  S
C528        C529   1.404       .  A
C528        H537   1.081       .  S
C529        C530   1.403       .  A
C530        H538   1.083       .  S
C539        C540   1.401       .  A
C539        C544   1.403       .  A
C540        C541   1.402       .  A
C540        H553   1.082       .  S
C541        C542   1.417       .  A
C541        H554   1.077       .  S
C542        C548   1.433       .  A
C542        C543   1.421       .  A
C543        C545   1.399   1_455  A
C543        C544   1.402       .  A
C544        H555   1.083   1_455  S
C545        C546   1.387   1_655  A
C545        H556   1.084       .  S
C546        C547   1.398       .  A
C546        H557   1.084   1_455  S
C547        C548   1.423       .  A
C547        C552   1.404       .  A
C548        C549   1.415       .  A
C549        C550   1.400       .  A
C549        H558   1.077       .  S
C550        C551   1.402       .  A
C550        H559   1.083       .  S
C551        C552   1.401       .  A
C552        H560   1.084       .  S
C561        C562   1.403       .  A
C561        C566   1.400       .  A
C562        C563   1.403       .  A
C562        H575   1.083       .  S
C563        C564   1.417       .  A
C563        H576   1.078       .  S
C564        C570   1.433       .  A
C564        C565   1.423       .  A
C565        C567   1.397       .  A
C565        C566   1.399       .  A
C566        H577   1.084       .  S
C567        C568   1.384       .  A
C567        H578   1.084       .  S
C568        C569   1.398       .  A
C568        H579   1.084       .  S
C569        C570   1.421       .  A
C569        C574   1.398       .  A
C570        C571   1.417       .  A
C571        C572   1.404       .  A
C571        H580   1.078       .  S
C572        C573   1.404       .  A
C572        H581   1.082       .  S
C573        C574   1.402       .  A
C574        H582   1.081       .  S
C583        C584   1.403   1_655  A
C583        C588   1.403       .  A
C584        C585   1.394       .  A
C584        H597   1.083       .  S
C585        C586   1.413       .  A
C585        H598   1.077       .  S
C586        C592   1.430       .  A
C586        C587   1.423       .  A
C587        C589   1.400       .  A
C587        C588   1.410   1_455  A
C588        H599   1.084       .  S
C589        C590   1.392       .  A
C589        H600   1.084   1_455  S
C590        C591   1.401       .  A
C590        H601   1.084       .  S
C591        C592   1.421       .  A
C591        C596   1.408       .  A
C592        C593   1.413       .  A
C593        C594   1.395       .  A
C593        H602   1.077       .  S
C594        C595   1.402       .  A
C594        H603   1.081       .  S
C595        C596   1.405       .  A
C596        H604   1.082       .  S
C605        C606   1.404       .  A
C605        C610   1.399       .  A
C606        C607   1.407       .  A
C606        H619   1.083       .  S
C607        C608   1.418       .  A
C607        H620   1.078       .  S
C608        C614   1.436       .  A
C608        C609   1.423       .  A
C609        C611   1.396       .  A
C609        C610   1.398       .  A
C610        H621   1.085       .  S
C611        C612   1.382       .  A
C611        H622   1.084       .  S
C612        C613   1.397       .  A
C612        H623   1.084       .  S
C613        C614   1.421       .  A
C613        C618   1.398       .  A
C614        C615   1.419       .  A
C615        C616   1.408       .  A
C615        H624   1.078       .  S
C616        C617   1.404       .  A
C616        H625   1.082       .  S
C617        C618   1.401       .  A
C618        H626   1.081       .  S
C627        C628   1.398       .  A
C627        C632   1.400       .  A
C628        C629   1.391       .  A
C628        H641   1.084       .  S
C629        C630   1.413       .  A
C629        H642   1.076       .  S
C630        C636   1.429       .  A
C630        C631   1.425       .  A
C631        C633   1.400       .  A
C631        C632   1.410       .  A
C632        H643   1.084       .  S
C633        C634   1.392       .  A
C633        H644   1.084   1_655  S
C634        C635   1.401       .  A
C634        H645   1.084   1_655  S
C635        C636   1.421       .  A
C635        C640   1.407       .  A
C636        C637   1.415       .  A
C637        C638   1.395       .  A
C637        H646   1.076       .  S
C638        C639   1.399       .  A
C638        H647   1.083       .  S
C639        C640   1.404       .  A
C640        H648   1.083       .  S
C649        C650   1.400       .  A
C649        C654   1.403       .  A
C650        C651   1.391       .  A
C650        H663   1.082       .  S
C651        C652   1.412       .  A
C651        H664   1.077       .  S
C652        C658   1.429       .  A
C652        C653   1.423       .  A
C653        C655   1.400       .  A
C653        C654   1.410       .  A
C654        H665   1.084       .  S
C655        C656   1.393       .  A
C655        H666   1.084       .  S
C656        C657   1.402       .  A
C656        H667   1.084       .  S
C657        C658   1.421       .  A
C657        C662   1.409       .  A
C658        C659   1.414       .  A
C659        C660   1.393       .  A
C659        H668   1.077       .  S
C660        C661   1.400       .  A
C660        H669   1.082       .  S
C661        C662   1.406       .  A
C662        H670   1.083       .  S
C671        C672   1.404       .  A
C671        C676   1.401       .  A
C672        C673   1.407       .  A
C672        H685   1.083       .  S
C673        C674   1.418       .  A
C673        H686   1.078       .  S
C674        C680   1.437       .  A
C674        C675   1.423       .  A
C675        C677   1.397       .  A
C675        C676   1.402       .  A
C676        H687   1.084       .  S
C677        C678   1.385       .  A
C677        H688   1.084       .  S
C678        C679   1.398       .  A
C678        H689   1.084       .  S
C679        C680   1.422       .  A
C679        C684   1.401       .  A
C680        C681   1.418       .  A
C681        C682   1.407       .  A
C681        H690   1.078       .  S
C682        C683   1.404       .  A
C682        H691   1.082       .  S
C683        C684   1.402       .  A
C684        H692   1.082       .  S
C693        C694   1.402   1_655  A
C693        C698   1.399       .  A
C694        C695   1.400       .  A
C694        H707   1.082       .  S
C695        C696   1.415   1_455  A
C695        H708   1.078       .  S
C696        C702   1.431       .  A
C696        C697   1.423       .  A
C697        C699   1.397       .  A
C697        C698   1.400       .  A
C698        H709   1.084       .  S
C699        C700   1.385       .  A
C699        H710   1.084       .  S
C700        C701   1.398       .  A
C700        H711   1.084       .  S
C701        C702   1.422       .  A
C701        C706   1.398       .  A
C702        C703   1.418   1_655  A
C703        C704   1.402   1_455  A
C703        H712   1.078       .  S
C704        C705   1.400       .  A
C704        H713   1.083   1_655  S
C705        C706   1.399       .  A
C706        H714   1.085       .  S
C715        C716   1.401       .  A
C715        C720   1.402       .  A
C716        C717   1.392       .  A
C716        H729   1.083       .  S
C717        C718   1.413       .  A
C717        H730   1.076       .  S
C718        C724   1.429       .  A
C718        C719   1.423       .  A
C719        C721   1.400       .  A
C719        C720   1.410       .  A
C720        H731   1.084       .  S
C721        C722   1.393       .  A
C721        H732   1.084       .  S
C722        C723   1.401       .  A
C722        H733   1.084       .  S
C723        C724   1.422       .  A
C723        C728   1.409       .  A
C724        C725   1.413       .  A
C725        C726   1.393       .  A
C725        H734   1.076       .  S
C726        C727   1.401       .  A
C726        H735   1.082       .  S
C727        C728   1.404       .  A
C728        H736   1.083       .  S
C737        C738   1.398       .  A
C737        C742   1.403       .  A
C738        C739   1.391       .  A
C738        H751   1.083       .  S
C739        C740   1.413       .  A
C739        H752   1.076       .  S
C740        C746   1.429       .  A
C740        C741   1.423       .  A
C741        C743   1.401       .  A
C741        C742   1.412       .  A
C742        H753   1.084       .  S
C743        C744   1.395       .  A
C743        H754   1.084   1_455  S
C744        C745   1.402       .  A
C744        H755   1.084   1_455  S
C745        C746   1.423       .  A
C745        C750   1.412       .  A
C746        C747   1.413       .  A
C747        C748   1.392       .  A
C747        H756   1.076       .  S
C748        C749   1.399       .  A
C748        H757   1.084       .  S
C749        C750   1.405       .  A
C750        H758   1.084       .  S
C759        C760   1.400       .  A
C759        C764   1.406   1_655  A
C760        C761   1.390       .  A
C760        H773   1.083       .  S
C761        C762   1.413       .  A
C761        H774   1.077       .  S
C762        C768   1.428       .  A
C762        C763   1.421   1_655  A
C763        C765   1.402       .  A
C763        C764   1.412       .  A
C764        H775   1.084       .  S
C765        C766   1.396       .  A
C765        H776   1.084       .  S
C766        C767   1.402       .  A
C766        H777   1.084       .  S
C767        C768   1.423   1_455  A
C767        C772   1.414       .  A
C768        C769   1.410       .  A
C769        C770   1.388       .  A
C769        H778   1.077       .  S
C770        C771   1.401   1_655  A
C770        H779   1.082       .  S
C771        C772   1.405       .  A
C772        H780   1.084       .  S
C781        C782   1.399       .  A
C781        C786   1.405       .  A
C782        C783   1.391       .  A
C782        H795   1.082       .  S
C783        C784   1.413       .  A
C783        H796   1.076       .  S
C784        C790   1.428       .  A
C784        C785   1.421       .  A
C785        C787   1.402   1_554  A
C785        C786   1.410       .  A
C786        H797   1.083   1_554  S
C787        C788   1.394       .  A
C787        H798   1.084       .  S
C788        C789   1.401   1_556  A
C788        H799   1.084       .  S
C789        C790   1.423       .  A
C789        C794   1.411   1_554  A
C790        C791   1.411       .  A
C791        C792   1.389       .  A
C791        H800   1.076       .  S
C792        C793   1.401       .  A
C792        H801   1.083       .  S
C793        C794   1.404   1_554  A
C794        H802   1.084       .  S
C803        C804   1.400       .  A
C803        C808   1.406       .  A
C804        C805   1.396       .  A
C804        H817   1.084       .  S
C805        C806   1.415       .  A
C805        H818   1.076       .  S
C806        C812   1.434       .  A
C806        C807   1.422       .  A
C807        C809   1.402       .  A
C807        C808   1.414       .  A
C808        H819   1.084       .  S
C809        C810   1.396       .  A
C809        H820   1.084       .  S
C810        C811   1.402       .  A
C810        H821   1.084       .  S
C811        C812   1.424       .  A
C811        C816   1.417       .  A
C812        C813   1.412       .  A
C813        C814   1.393       .  A
C813        H822   1.076       .  S
C814        C815   1.403       .  A
C814        H823   1.082       .  S
C815        C816   1.406       .  A
C816        H824   1.084       .  S
C825        C826   1.400       .  A
C825        C830   1.402       .  A
C826        C827   1.403       .  A
C826        H839   1.083       .  S
C827        C828   1.418       .  A
C827        H840   1.078       .  S
C828        C834   1.432       .  A
C828        C829   1.421       .  A
C829        C831   1.399       .  A
C829        C830   1.400       .  A
C830        H841   1.085       .  S
C831        C832   1.386       .  A
C831        H842   1.084       .  S
C832        C833   1.398       .  A
C832        H843   1.084       .  S
C833        C834   1.423       .  A
C833        C838   1.402       .  A
C834        C835   1.414       .  A
C835        C836   1.399       .  A
C835        H844   1.078       .  S
C836        C837   1.403       .  A
C836        H845   1.082       .  S
C837        C838   1.400       .  A
C838        H846   1.083       .  S
C847        C848   1.401       .  A
C847        C852   1.406       .  A
C848        C849   1.394       .  A
C848        H861   1.083       .  S
C849        C850   1.414       .  A
C849        H862   1.075       .  S
C850        C856   1.431       .  A
C850        C851   1.422       .  A
C851        C853   1.401       .  A
C851        C852   1.411       .  A
C852        H863   1.084       .  S
C853        C854   1.394       .  A
C853        H864   1.084       .  S
C854        C855   1.400       .  A
C854        H865   1.084       .  S
C855        C856   1.423       .  A
C855        C860   1.410       .  A
C856        C857   1.413       .  A
C857        C858   1.393       .  A
C857        H866   1.075       .  S
C858        C859   1.401       .  A
C858        H867   1.083       .  S
C859        C860   1.403       .  A
C860        H868   1.083       .  S
C869        C870   1.400       .  A
C869        C874   1.406       .  A
C870        C871   1.388       .  A
C870        H883   1.082       .  S
C871        C872   1.411       .  A
C871        H884   1.076       .  S
C872        C878   1.428       .  A
C872        C873   1.422       .  A
C873        C875   1.402       .  A
C873        C874   1.414       .  A
C874        H885   1.084       .  S
C875        C876   1.396       .  A
C875        H886   1.084       .  S
C876        C877   1.403       .  A
C876        H887   1.084       .  S
C877        C878   1.421       .  A
C877        C882   1.412       .  A
C878        C879   1.413       .  A
C879        C880   1.390       .  A
C879        H888   1.076       .  S
C880        C881   1.399       .  A
C880        H889   1.082       .  S
C881        C882   1.408       .  A
C882        H890   1.083       .  S
C891        C892   1.401       .  A
C891        C896   1.403   1_655  A
C892        C893   1.394       .  A
C892        H905   1.082       .  S
C893        C894   1.413       .  A
C893        H906   1.077       .  S
C894        C900   1.429       .  A
C894        C895   1.421   1_655  A
C895        C897   1.400       .  A
C895        C896   1.407       .  A
C896        H907   1.083       .  S
C897        C898   1.392       .  A
C897        H908   1.084       .  S
C898        C899   1.400       .  A
C898        H909   1.084       .  S
C899        C900   1.424   1_455  A
C899        C904   1.408       .  A
C900        C901   1.414       .  A
C901        C902   1.393       .  A
C901        H910   1.077       .  S
C902        C903   1.399       .  A
C902        H911   1.084       .  S
C903        C904   1.400   1_655  A
C904        H912   1.084       .  S
C913        C914   1.396       .  A
C913        C918   1.399       .  A
C914        C915   1.397       .  A
C914        H927   1.083       .  S
C915        C916   1.418       .  A
C915        H928   1.077       .  S
C916        C922   1.426       .  A
C916        C917   1.421       .  A
C917        C919   1.399       .  A
C917        C918   1.397       .  A
C918        H929   1.085       .  S
C919        C920   1.387       .  A
C919        H930   1.084       .  S
C920        C921   1.398       .  A
C920        H931   1.084       .  S
C921        C922   1.423       .  A
C921        C926   1.401       .  A
C922        C923   1.412       .  A
C923        C924   1.393       .  A
C923        H932   1.077       .  S
C924        C925   1.401       .  A
C924        H933   1.081       .  S
C925        C926   1.400       .  A
C926        H934   1.083       .  S
C935        C936   1.399       .  A
C935        C940   1.406       .  A
C936        C937   1.389       .  A
C936        H949   1.083       .  S
C937        C938   1.413       .  A
C937        H950   1.076       .  S
C938        C944   1.427       .  A
C938        C939   1.421       .  A
C939        C941   1.402   1_455  A
C939        C940   1.411       .  A
C940        H951   1.084   1_455  S
C941        C942   1.395       .  A
C941        H952   1.084       .  S
C942        C943   1.402   1_655  A
C942        H953   1.084       .  S
C943        C944   1.423       .  A
C943        C948   1.412       .  A
C944        C945   1.411       .  A
C945        C946   1.388       .  A
C945        H954   1.075       .  S
C946        C947   1.399       .  A
C946        H955   1.083       .  S
C947        C948   1.404       .  A
C948        H956   1.084   1_455  S
C957        C958   1.403       .  A
C957        C962   1.400       .  A
C958        C959   1.402       .  A
C958        H971   1.083       .  S
C959        C960   1.417       .  A
C959        H972   1.078       .  S
C960        C966   1.433       .  A
C960        C961   1.422       .  A
C961        C963   1.398   1_655  A
C961        C962   1.400       .  A
C962        H973   1.084   1_655  S
C963        C964   1.385       .  A
C963        H974   1.084       .  S
C964        C965   1.398   1_455  A
C964        H975   1.084       .  S
C965        C966   1.423       .  A
C965        C970   1.401       .  A
C966        C967   1.417       .  A
C967        C968   1.403       .  A
C967        H976   1.078       .  S
C968        C969   1.401       .  A
C968        H977   1.083       .  S
C969        C970   1.399       .  A
C970        H978   1.084       .  S
C979        C980   1.401       .  A
C979        C984   1.403       .  A
C980        C981   1.393       .  A
C980        H993   1.081       .  S
C981        C982   1.413       .  A
C981        H994   1.077       .  S
C982        C988   1.427       .  A
C982        C983   1.422       .  A
C983        C985   1.399       .  A
C983        C984   1.403       .  A
C984        H995   1.082       .  S
C985        C986   1.388       .  A
C985        H996   1.084       .  S
C986        C987   1.400       .  A
C986        H997   1.084       .  S
C987        C988   1.421       .  A
C987        C992   1.401       .  A
C988        C989   1.416       .  A
C989        C990   1.396       .  A
C989        H998   1.077       .  S
C990        C991   1.398       .  A
C990        H999   1.083       .  S
C991        C992   1.403       .  A
C992       H1000   1.084       .  S
C1001      C1002   1.402       .  A
C1001      C1006   1.405       .  A
C1002      C1003   1.390       .  A
C1002      H1015   1.082       .  S
C1003      C1004   1.411       .  A
C1003      H1016   1.081       .  S
C1004      C1010   1.431       .  A
C1004      C1005   1.423       .  A
C1005      C1007   1.402       .  A
C1005      C1006   1.415       .  A
C1006      H1017   1.085       .  S
C1007      C1008   1.396       .  A
C1007      H1018   1.084       .  S
C1008      C1009   1.402       .  A
C1008      H1019   1.084       .  S
C1009      C1010   1.423       .  A
C1009      C1014   1.415       .  A
C1010      C1011   1.412       .  A
C1011      C1012   1.391       .  A
C1011      H1020   1.081       .  S
C1012      C1013   1.403       .  A
C1012      H1021   1.083       .  S
C1013      C1014   1.407       .  A
C1014      H1022   1.085       .  S
C1023      C1024   1.399       .  A
C1023      C1028   1.403       .  A
C1024      C1025   1.392       .  A
C1024      H1037   1.082       .  S
C1025      C1026   1.414       .  A
C1025      H1038   1.076       .  S
C1026      C1032   1.427       .  A
C1026      C1027   1.421       .  A
C1027      C1029   1.400       .  A
C1027      C1028   1.406       .  A
C1028      H1039   1.083       .  S
C1029      C1030   1.392       .  A
C1029      H1040   1.084       .  S
C1030      C1031   1.400       .  A
C1030      H1041   1.084       .  S
C1031      C1032   1.423       .  A
C1031      C1036   1.408       .  A
C1032      C1033   1.412       .  A
C1033      C1034   1.390       .  A
C1033      H1042   1.076       .  S
C1034      C1035   1.399       .  A
C1034      H1043   1.084       .  S
C1035      C1036   1.401       .  A
C1036      H1044   1.084       .  S
C1045      C1046   1.399       .  A
C1045      C1050   1.401       .  A
C1046      C1047   1.396       .  A
C1046      H1059   1.083       .  S
C1047      C1048   1.415       .  A
C1047      H1060   1.077       .  S
C1048      C1054   1.429       .  A
C1048      C1049   1.423       .  A
C1049      C1051   1.399       .  A
C1049      C1050   1.404       .  A
C1050      H1061   1.085       .  S
C1051      C1052   1.389       .  A
C1051      H1062   1.084       .  S
C1052      C1053   1.399       .  A
C1052      H1063   1.084       .  S
C1053      C1054   1.421       .  A
C1053      C1058   1.404       .  A
C1054      C1055   1.414       .  A
C1055      C1056   1.396       .  A
C1055      H1064   1.077       .  S
C1056      C1057   1.402       .  A
C1056      H1065   1.081       .  S
C1057      C1058   1.403       .  A
C1058      H1066   1.083       .  S
C1067      C1068   1.400       .  A
C1067      C1072   1.400       .  A
C1068      C1069   1.401       .  A
C1068      H1081   1.083       .  S
C1069      C1070   1.417       .  A
C1069      H1082   1.077       .  S
C1070      C1076   1.430       .  A
C1070      C1071   1.422       .  A
C1071      C1073   1.398       .  A
C1071      C1072   1.398       .  A
C1072      H1083   1.085       .  S
C1073      C1074   1.384       .  A
C1073      H1084   1.084       .  S
C1074      C1075   1.398       .  A
C1074      H1085   1.084       .  S
C1075      C1076   1.422       .  A
C1075      C1080   1.397       .  A
C1076      C1077   1.417       .  A
C1077      C1078   1.401       .  A
C1077      H1086   1.077       .  S
C1078      C1079   1.399       .  A
C1078      H1087   1.083       .  S
C1079      C1080   1.399       .  A
C1080      H1088   1.084       .  S
C1089      C1090   1.400       .  A
C1089      C1094   1.402       .  A
C1090      C1091   1.391       .  A
C1090      H1103   1.084       .  S
C1091      C1092   1.413       .  A
C1091      H1104   1.077       .  S
C1092      C1098   1.428       .  A
C1092      C1093   1.422       .  A
C1093      C1095   1.401       .  A
C1093      C1094   1.409       .  A
C1094      H1105   1.084       .  S
C1095      C1096   1.393       .  A
C1095      H1106   1.084       .  S
C1096      C1097   1.400       .  A
C1096      H1107   1.084       .  S
C1097      C1098   1.423       .  A
C1097      C1102   1.410       .  A
C1098      C1099   1.412       .  A
C1099      C1100   1.390       .  A
C1099      H1108   1.077       .  S
C1100      C1101   1.400       .  A
C1100      H1109   1.083       .  S
C1101      C1102   1.402       .  A
C1102      H1110   1.084       .  S
C1111      C1112   1.404       .  A
C1111      C1116   1.402       .  A
C1112      C1113   1.401       .  A
C1112      H1125   1.082       .  S
C1113      C1114   1.415       .  A
C1113      H1126   1.078       .  S
C1114      C1120   1.433       .  A
C1114      C1115   1.422       .  A
C1115      C1117   1.398   1_554  A
C1115      C1116   1.402       .  A
C1116      H1127   1.082   1_554  S
C1117      C1118   1.386       .  A
C1117      H1128   1.084       .  S
C1118      C1119   1.398   1_556  A
C1118      H1129   1.084       .  S
C1119      C1120   1.422       .  A
C1119      C1124   1.401       .  A
C1120      C1121   1.417       .  A
C1121      C1122   1.402       .  A
C1121      H1130   1.078       .  S
C1122      C1123   1.402       .  A
C1122      H1131   1.083       .  S
C1123      C1124   1.400       .  A
C1124      H1132   1.084       .  S
C1133      C1134   1.402       .  A
C1133      C1138   1.400       .  A
C1134      C1135   1.397       .  A
C1134      H1147   1.082       .  S
C1135      C1136   1.414       .  A
C1135      H1148   1.077       .  S
C1136      C1142   1.431       .  A
C1136      C1137   1.423       .  A
C1137      C1139   1.398       .  A
C1137      C1138   1.404       .  A
C1138      H1149   1.084       .  S
C1139      C1140   1.387       .  A
C1139      H1150   1.084       .  S
C1140      C1141   1.400       .  A
C1140      H1151   1.084       .  S
C1141      C1142   1.420       .  A
C1141      C1146   1.401       .  A
C1142      C1143   1.417       .  A
C1143      C1144   1.400       .  A
C1143      H1152   1.077       .  S
C1144      C1145   1.400       .  A
C1144      H1153   1.082       .  S
C1145      C1146   1.404       .  A
C1146      H1154   1.082       .  S
C1155      C1156   1.404       .  A
C1155      C1160   1.402       .  A
C1156      C1157   1.402       .  A
C1156      H1169   1.082       .  S
C1157      C1158   1.415       .  A
C1157      H1170   1.078       .  S
C1158      C1164   1.435       .  A
C1158      C1159   1.423       .  A
C1159      C1161   1.398       .  A
C1159      C1160   1.404       .  A
C1160      H1171   1.082       .  S
C1161      C1162   1.387       .  A
C1161      H1172   1.084       .  S
C1162      C1163   1.399       .  A
C1162      H1173   1.084       .  S
C1163      C1164   1.421       .  A
C1163      C1168   1.402       .  A
C1164      C1165   1.418       .  A
C1165      C1166   1.405       .  A
C1165      H1174   1.078       .  S
C1166      C1167   1.403       .  A
C1166      H1175   1.082       .  S
C1167      C1168   1.404       .  A
C1168      H1176   1.082       .  S
C1177      C1178   1.403       .  A
C1177      C1182   1.404       .  A
C1178      C1179   1.401       .  A
C1178      H1191   1.082       .  S
C1179      C1180   1.415       .  A
C1179      H1192   1.078       .  S
C1180      C1186   1.434       .  A
C1180      C1181   1.422       .  A
C1181      C1183   1.399       .  A
C1181      C1182   1.405       .  A
C1182      H1193   1.082       .  S
C1183      C1184   1.387       .  A
C1183      H1194   1.084       .  S
C1184      C1185   1.399       .  A
C1184      H1195   1.084       .  S
C1185      C1186   1.421       .  A
C1185      C1190   1.402       .  A
C1186      C1187   1.417       .  A
C1187      C1188   1.403       .  A
C1187      H1196   1.078       .  S
C1188      C1189   1.402       .  A
C1188      H1197   1.082       .  S
C1189      C1190   1.405       .  A
C1190      H1198   1.082       .  S
C1199      C1200   1.401       .  A
C1199      C1204   1.405       .  A
C1200      C1201   1.392       .  A
C1200      H1213   1.081       .  S
C1201      C1202   1.413       .  A
C1201      H1214   1.076       .  S
C1202      C1208   1.427       .  A
C1202      C1203   1.420       .  A
C1203      C1205   1.401       .  A
C1203      C1204   1.406       .  A
C1204      H1215   1.082       .  S
C1205      C1206   1.392       .  A
C1205      H1216   1.084       .  S
C1206      C1207   1.400       .  A
C1206      H1217   1.084       .  S
C1207      C1208   1.422       .  A
C1207      C1212   1.408       .  A
C1208      C1209   1.411       .  A
C1209      C1210   1.390       .  A
C1209      H1218   1.076       .  S
C1210      C1211   1.403       .  A
C1210      H1219   1.080       .  S
C1211      C1212   1.404       .  A
C1212      H1220   1.083       .  S
C1221      C1222   1.402       .  A
C1221      C1226   1.404       .  A
C1222      C1223   1.396       .  A
C1222      H1235   1.082       .  S
C1223      C1224   1.414       .  A
C1223      H1236   1.077       .  S
C1224      C1230   1.431       .  A
C1224      C1225   1.421       .  A
C1225      C1227   1.400   1_556  A
C1225      C1226   1.408       .  A
C1226      H1237   1.083   1_556  S
C1227      C1228   1.392   1_554  A
C1227      H1238   1.084       .  S
C1228      C1229   1.399       .  A
C1228      H1239   1.084   1_556  S
C1229      C1230   1.424       .  A
C1229      C1234   1.410       .  A
C1230      C1231   1.413       .  A
C1231      C1232   1.394       .  A
C1231      H1240   1.077       .  S
C1232      C1233   1.402       .  A
C1232      H1241   1.083       .  S
C1233      C1234   1.401       .  A
C1234      H1242   1.084       .  S
C1243      C1244   1.400       .  A
C1243      C1248   1.402       .  A
C1244      C1245   1.390       .  A
C1244      H1257   1.083       .  S
C1245      C1246   1.411       .  A
C1245      H1258   1.077       .  S
C1246      C1252   1.427       .  A
C1246      C1247   1.423       .  A
C1247      C1249   1.400       .  A
C1247      C1248   1.410       .  A
C1248      H1259   1.084       .  S
C1249      C1250   1.393       .  A
C1249      H1260   1.084   1_556  S
C1250      C1251   1.401       .  A
C1250      H1261   1.084   1_556  S
C1251      C1252   1.420       .  A
C1251      C1256   1.407       .  A
C1252      C1253   1.414       .  A
C1253      C1254   1.393       .  A
C1253      H1262   1.077       .  S
C1254      C1255   1.400       .  A
C1254      H1263   1.082       .  S
C1255      C1256   1.405       .  A
C1256      H1264   1.083       .  S
C1265      C1266   1.402   1_554  A
C1265      C1270   1.401       .  A
C1266      C1267   1.395   1_556  A
C1266      H1279   1.082       .  S
C1267      C1268   1.413       .  A
C1267      H1280   1.077       .  S
C1268      C1274   1.431       .  A
C1268      C1269   1.424       .  A
C1269      C1271   1.398       .  A
C1269      C1270   1.405       .  A
C1270      H1281   1.084       .  S
C1271      C1272   1.389       .  A
C1271      H1282   1.084       .  S
C1272      C1273   1.400       .  A
C1272      H1283   1.084       .  S
C1273      C1274   1.420       .  A
C1273      C1278   1.402       .  A
C1274      C1275   1.417       .  A
C1275      C1276   1.400       .  A
C1275      H1284   1.077       .  S
C1276      C1277   1.401       .  A
C1276      H1285   1.082       .  S
C1277      C1278   1.405       .  A
C1278      H1286   1.082       .  S
C1287      C1288   1.400       .  A
C1287      C1292   1.405       .  A
C1288      C1289   1.394       .  A
C1288      H1301   1.082       .  S
C1289      C1290   1.415       .  A
C1289      H1302   1.076       .  S
C1290      C1296   1.429       .  A
C1290      C1291   1.421       .  A
C1291      C1293   1.401       .  A
C1291      C1292   1.408       .  A
C1292      H1303   1.083       .  S
C1293      C1294   1.392       .  A
C1293      H1304   1.084   1_556  S
C1294      C1295   1.400       .  A
C1294      H1305   1.084   1_556  S
C1295      C1296   1.424       .  A
C1295      C1300   1.410       .  A
C1296      C1297   1.412       .  A
C1297      C1298   1.391       .  A
C1297      H1306   1.076       .  S
C1298      C1299   1.401       .  A
C1298      H1307   1.083       .  S
C1299      C1300   1.401       .  A
C1300      H1308   1.084       .  S
