geometry optimzed in LAMMPS
_audit_creation_date              2020-11-30 
_audit_creation_method            'lammps2cif' 
_symmetry_space_group_name_H-M    'P1' 
_symmetry_Int_Tables_number       1 
_symmetry_cell_setting            triclinic 
loop_ 
_symmetry_equiv_pos_as_xyz 
  x,y,z 
_cell_length_a                    39.90078712 
_cell_length_b                    40.349286470030506 
_cell_length_c                    40.63848902420925 
_cell_angle_alpha                 89.07866947290033 
_cell_angle_beta                  90.23944761883095 
_cell_angle_gamma                 89.39912829845328 
loop_ 
_atom_site_label 
_atom_site_type_symbol 
_atom_site_fract_x 
_atom_site_fract_y 
_atom_site_fract_z 
_atom_site_charge 
O1          O  0.72934070  0.76248138  0.81228354    -0.88300
C2          C  0.73937290  0.68121618  0.75352788     0.87700
Mg3        Mg  0.70589194  0.80797071  0.79711102     1.58100
O4          O  0.81453167  0.72421808  0.76474698    -0.88000
O5          O  0.77891119  0.74511879  0.82998497    -0.75400
C6          C  0.76390365  0.82576182  0.64299722     0.92800
O7          O  0.67909216  0.73753989  0.75533713    -0.75200
O8          O  0.73922111  0.83581868  0.66010243    -0.82700
Mg9        Mg  0.70234531  0.71792517  0.80311074     1.58000
C10         C  0.87433664  0.74826381  0.68606608     0.92700
O11         O  0.71947308  0.69683421  0.85320405    -0.81000
H12         H  0.84755429  0.74544434  0.79476855    -0.06300
C13         C  0.75874104  0.74246671  0.68415720     0.87600
O14         O  0.75705645  0.82909915  0.78284127    -0.75500
O15         O  0.74501876  0.69898870  0.77737827    -0.88200
O16         O  0.86418254  0.72219958  0.70110209    -0.81000
C17         C  0.82213789  0.63448256  0.75567688     0.92800
C18         C  0.74273750  0.67781780  0.86403770     0.92700
Mg19       Mg  0.80915911  0.79266962  0.70717795     1.58000
O20         O  0.78856910  0.80995409  0.65610772    -0.81000
O21         O  0.83279524  0.77490876  0.75629344    -0.75200
O22         O  0.80415721  0.64444226  0.77971665    -0.81000
O23         O  0.65615795  0.73728932  0.82719664    -0.82800
O24         O  0.70532538  0.86384772  0.72967373    -0.81100
C25         C  0.83250577  0.74770877  0.77264604     0.87100
O26         O  0.76738913  0.81250180  0.73267373    -0.88200
O27         O  0.78433045  0.74679824  0.70095274    -0.88300
O28         O  0.73350264  0.76210051  0.68483139    -0.75400
Mg29       Mg  0.79133847  0.69643133  0.80347747     1.58000
O30         O  0.83499288  0.65518550  0.73558493    -0.82800
H31         H  0.75483598  0.78574036  0.84736914    -0.06500
O32         O  0.69925949  0.78749902  0.74914656    -0.88000
H33         H  0.66382522  0.76984833  0.71952667    -0.06300
H34         H  0.79770282  0.84319371  0.75652732    -0.06500
C35         C  0.67960638  0.76561804  0.74090569     0.87100
C36         C  0.75398436  0.76510316  0.83075496     0.87700
C37         C  0.77476134  0.82917257  0.75691950     0.87700
H38         H  0.75740129  0.72068804  0.66907555    -0.06500
O39         O  0.75948321  0.67969783  0.72939841    -0.75500
Mg40       Mg  0.72009368  0.81237533  0.70802214     1.58000
H41         H  0.71661262  0.66692947  0.75300016    -0.06500
C42         C  0.63995962  0.76450211  0.82758138     0.92700
O43         O  0.68524924  0.85773960  0.78084671    -0.82700
C44         C  0.69152858  0.87557055  0.75550476     0.92700
O45         O  0.76810376  0.67051001  0.84670394    -0.82700
Mg46       Mg  0.81075765  0.70300042  0.71738576     1.58200
O47         O  0.65233739  0.79108613  0.81525522    -0.81000
O48         O  0.85540998  0.77371261  0.68319600    -0.82700
C49         C  0.62300610  0.00559653  0.76005719    -0.02500
O50         O  0.75369748  0.19964932  0.78646941    -0.88300
C51         C  0.66808838  0.25360706  0.77183612     0.87700
Mg52       Mg  0.79722568  0.21916089  0.80987754     1.58100
O53         O  0.71372179  0.24085608  0.69989305    -0.88000
O54         O  0.73939272  0.17776074  0.73925422    -0.75400
C55         C  0.81327283  0.36807236  0.73631447     0.92800
O56         O  0.72231499  0.25669329  0.83071690    -0.75200
O57         O  0.82079152  0.35278503  0.76308685    -0.82700
Mg58       Mg  0.70716664  0.20572516  0.81133054     1.58000
C59         C  0.73461391  0.31521689  0.63363334     0.92700
O60         O  0.69082907  0.15238869  0.79588601    -0.81000
H61         H  0.73689911  0.20970903  0.66947386    -0.06300
C62         C  0.72728230  0.32790205  0.74579610     0.87600
O63         O  0.81979516  0.23070273  0.75908040    -0.75500
O64         O  0.68619678  0.22884972  0.76786802    -0.88200
O65         O  0.70895193  0.30084017  0.64593407    -0.81000
C66         C  0.62298045  0.24436385  0.68886100     0.92800
C67         C  0.67407157  0.13862152  0.77307126     0.92700
Mg68       Mg  0.77979071  0.30137254  0.69912566     1.58000
O69         O  0.79684906  0.35434060  0.71330944    -0.81000
O70         O  0.76421683  0.25017802  0.68062800    -0.75200
O71         O  0.63584447  0.22115671  0.70683248    -0.81000
O72         O  0.72886853  0.18455916  0.85852957    -0.82800
O73         O  0.85041568  0.28733991  0.80456579    -0.81100
C74         C  0.73782424  0.23282845  0.68251407     0.87100
O75         O  0.79977713  0.27919557  0.74313897    -0.88200
O76         O  0.73282581  0.30844443  0.72306465    -0.88300
O77         O  0.74633456  0.32964214  0.77096423    -0.75400
Mg78       Mg  0.68842401  0.20081416  0.72380066     1.58000
O79         O  0.64046075  0.26873775  0.67873027    -0.82800
H80         H  0.78130915  0.16454721  0.76495248    -0.06500
O81         O  0.77257606  0.26666978  0.81120788    -0.88000
H82         H  0.74945478  0.29715793  0.84230902    -0.06300
H83         H  0.83353446  0.25419029  0.71681166    -0.06500
C84         C  0.74857325  0.27424824  0.82891035     0.87100
C85         C  0.75892799  0.17987480  0.76398592     0.87700
C86         C  0.81855297  0.25506747  0.73889192     0.87700
H87         H  0.70488255  0.34319886  0.74472092    -0.06500
O88         O  0.66690888  0.27756824  0.75103236    -0.75500
Mg89       Mg  0.79736898  0.30719573  0.78722908     1.58000
H90         H  0.65344367  0.25530196  0.79407915    -0.06500
C91         C  0.75529033  0.18879443  0.87567894     0.92700
O92         O  0.84477625  0.23881704  0.83102153    -0.82700
C93         C  0.86260008  0.26318006  0.82181661     0.92700
O94         O  0.66452098  0.15509213  0.74757083    -0.82700
Mg95       Mg  0.68939662  0.28833089  0.69970423     1.58200
O96         O  0.78029857  0.20403902  0.86344139    -0.81000
O97         O  0.76031082  0.32175469  0.65087535    -0.82700
C98         C  0.87553148  0.50039723  0.73646948    -0.02500
C99         C  0.75840913  0.86418609  0.50252807    -0.02500
O100        O  0.77594216  0.75033823  0.19841917    -0.88300
C101        C  0.76374304  0.66542489  0.25168680     0.87700
Mg102      Mg  0.80428921  0.79223408  0.21485610     1.58100
O103        O  0.69287415  0.71629752  0.24562733    -0.88000
O104        O  0.72562939  0.73860987  0.17963164    -0.75400
C105        C  0.74966595  0.81165656  0.36790171     0.92800
O106        O  0.82438416  0.71692641  0.25154939    -0.75200
O107        O  0.77420747  0.81942608  0.34947278    -0.82700
Mg108      Mg  0.79921796  0.70262353  0.20278547     1.58000
C109        C  0.63556196  0.73847554  0.32330652     0.92700
O110        O  0.77705784  0.68721412  0.15208947    -0.81000
H111        H  0.65952205  0.74157422  0.21792538    -0.06300
C112        C  0.75058465  0.72725955  0.32760395     0.87600
O113        O  0.75497131  0.81806019  0.22974773    -0.75500
O114        O  0.75717041  0.68437894  0.22825947    -0.88200
O115        O  0.64747946  0.71380938  0.30802735    -0.81000
C116        C  0.67732532  0.62747589  0.25221237     0.92800
C117        C  0.75223843  0.67181820  0.13978021     0.92700
Mg118      Mg  0.70157659  0.78085872  0.30627354     1.58000
O119        O  0.72424213  0.79593818  0.35721457    -0.81000
O120        O  0.67625458  0.76696841  0.25734311    -0.75200
O121        O  0.69318460  0.63720634  0.22650305    -0.81000
O122        O  0.84634568  0.71942944  0.17859089    -0.82800
O123        O  0.80897645  0.84671928  0.28010398    -0.81100
C124        C  0.67535655  0.74125071  0.23958302     0.87100
O125        O  0.74376907  0.79960689  0.27965047    -0.88200
O126        O  0.72600361  0.73356389  0.30973368    -0.88300
O127        O  0.77651812  0.74544083  0.32768509    -0.75400
Mg128      Mg  0.70977212  0.68911982  0.20418891     1.58000
O129        O  0.67052550  0.64766481  0.27482871    -0.82800
H130        H  0.75221038  0.77874866  0.16471883    -0.06500
O131        O  0.80936688  0.76845714  0.26176384    -0.88000
H132        H  0.84206955  0.74303565  0.29005609    -0.06300
H133        H  0.71535028  0.83399482  0.25664740    -0.06500
C134        C  0.82621432  0.74319516  0.26841412     0.87100
C135        C  0.75163707  0.75669920  0.18016863     0.87700
C136        C  0.73728039  0.81807403  0.25575492     0.87700
H137        H  0.75032834  0.70521011  0.34306919    -0.06500
O138        O  0.74667026  0.66563226  0.27798186    -0.75500
Mg139      Mg  0.79176533  0.79502026  0.30283403     1.58000
H140        H  0.78534371  0.64912566  0.25020417    -0.06500
C141        C  0.86586081  0.74319232  0.18507012     0.92700
O142        O  0.83065825  0.83983415  0.23043206    -0.82700
C143        C  0.82436522  0.85837336  0.25484623     0.92700
O144        O  0.72685665  0.66425298  0.15716845    -0.82700
Mg145      Mg  0.69801403  0.69223859  0.29229003     1.58200
O146        O  0.85575736  0.76915852  0.19975482    -0.81000
O147        O  0.65373837  0.76289994  0.33120650    -0.82700
C148        C  0.75007191  0.62450863  0.00121154    -0.02500
C149        C  0.50616503  0.74762946  0.38667194    -0.02500
C150        C  0.11866208  0.00388440  0.74726109    -0.02500
C151        C  0.74953058  0.12029430  0.00773177    -0.02500
C152        C  0.37502963  0.50207373  0.74985257    -0.02500
C153        C  0.75490129  0.37365258  0.50043239    -0.02500
C154        C  0.62286030  0.49179211  0.25888299    -0.02500
C155        C  0.24857679  0.63123876  0.50512141    -0.02500
C156        C  0.99978808  0.74058995  0.12401467    -0.02500
O157        O  0.29143382  0.78271003  0.28754895    -0.88300
C158        C  0.29876119  0.75690767  0.19122104     0.87700
Mg159      Mg  0.29316944  0.74800474  0.32736883     1.58100
O160        O  0.21756515  0.78043468  0.21460356    -0.88000
O161        O  0.25716514  0.82101157  0.26724816    -0.75400
C162        C  0.19452066  0.62665992  0.27505376     0.92800
O163        O  0.33315358  0.72235676  0.25705301    -0.75200
O164        O  0.21785808  0.62992404  0.29617253    -0.82700
Mg165      Mg  0.33039859  0.77902323  0.25197571     1.58000
C166        C  0.13453227  0.72663385  0.19110473     0.92700
O167        O  0.33114937  0.83539171  0.24803429    -0.81000
H168        H  0.18618122  0.81344825  0.23444965    -0.06300
C169        C  0.23966342  0.68247941  0.21521322     0.87600
O170        O  0.23556976  0.74814796  0.32905342    -0.75500
O171        O  0.29282993  0.77606197  0.21401056    -0.88200
O172        O  0.15897817  0.74151779  0.17719437    -0.81000
C173        C  0.23848197  0.80266286  0.12993070     0.92800
C174        C  0.31986137  0.85977045  0.23098805     0.92700
Mg175      Mg  0.18151093  0.70921017  0.25529373     1.58000
O176        O  0.18210136  0.65210181  0.25996797    -0.81000
O177        O  0.17884611  0.76614438  0.25038176    -0.75200
O178        O  0.25591461  0.81546602  0.15291237    -0.81000
O179        O  0.37221951  0.78028658  0.29083451    -0.82800
O180        O  0.25524475  0.67481653  0.35375347    -0.81100
C181        C  0.19378188  0.78773870  0.23273897     0.87100
O182        O  0.21894460  0.71207667  0.29272721    -0.88200
O183        O  0.22017086  0.70632339  0.21887276    -0.88300
O184        O  0.25528276  0.66853168  0.23924811    -0.75400
Mg185      Mg  0.25681478  0.81597697  0.21080323     1.58000
O186        O  0.21851995  0.77875102  0.13550906    -0.82800
H187        H  0.26850284  0.81604899  0.31581897    -0.06500
O188        O  0.29392024  0.70899145  0.29247172    -0.88000
H189        H  0.32560950  0.67546035  0.27397643    -0.06300
H190        H  0.18687418  0.73613934  0.32178889    -0.06500
C191        C  0.31802188  0.70122301  0.27498670     0.87100
C192        C  0.27265804  0.80702606  0.29124786     0.87700
C193        C  0.21268537  0.73183960  0.31492273     0.87700
H194        H  0.24428957  0.67378039  0.19060492    -0.06500
O195        O  0.27551095  0.74160135  0.17649653    -0.75500
Mg196      Mg  0.25559557  0.67269884  0.29596665     1.58000
H197        H  0.32448477  0.75248315  0.18412463    -0.06500
C198        C  0.37603969  0.76322537  0.31726578     0.92700
O199        O  0.29196324  0.71267011  0.37039204    -0.82700
C200        C  0.27156306  0.68940771  0.37645040     0.92700
O201        O  0.29656179  0.85612680  0.20984594    -0.82700
Mg202      Mg  0.21774885  0.74196820  0.17903288     1.58200
O203        O  0.35155270  0.74838752  0.33097526    -0.81000
O204        O  0.13869173  0.70883598  0.21708719    -0.82700
C205        C  0.25462072  0.87296058  0.00005471    -0.02500
C206        C  0.48970729  0.24608616  0.62369158    -0.02500
O207        O  0.27186913  0.29222303  0.76996776    -0.88300
C208        C  0.17270439  0.29732431  0.75147345     0.87700
Mg209      Mg  0.30809819  0.29599462  0.73294407     1.58100
O210        O  0.20441911  0.21787812  0.76673990    -0.88000
O211        O  0.25948877  0.25517652  0.80768431    -0.75400
C212        C  0.25391664  0.19922282  0.61033774     0.92800
O213        O  0.23341426  0.33539485  0.71481410    -0.75200
O214        O  0.27164987  0.22471795  0.61584115    -0.82700
Mg215      Mg  0.23395279  0.32994968  0.77125104     1.58000
C216        C  0.17828578  0.13601806  0.71579601     0.92700
O217        O  0.23467543  0.32807801  0.82777369    -0.81000
H218        H  0.22928055  0.18615241  0.79645178    -0.06300
C219        C  0.19142961  0.24193828  0.67024000     0.87600
O220        O  0.31115301  0.23898501  0.72971539    -0.75500
O221        O  0.19754952  0.29156542  0.76921080    -0.88200
O222        O  0.16555385  0.16059544  0.73087554    -0.81000
C223        C  0.12063150  0.23263776  0.79830530     0.92800
C224        C  0.22191349  0.31308019  0.85252008     0.92700
Mg225      Mg  0.23682893  0.18416659  0.69144157     1.58000
O226        O  0.23735551  0.18469512  0.63327506    -0.81000
O227        O  0.23841452  0.17958466  0.74790308    -0.75200
O228        O  0.14562114  0.24832693  0.80964146    -0.81000
O229        O  0.27171273  0.37221460  0.77187626    -0.82800
O230        O  0.32924091  0.26181253  0.66023756    -0.81100
C231        C  0.22390228  0.19420887  0.77146562     0.87100
O232        O  0.27286800  0.22256165  0.69457739    -0.88200
O233        O  0.19855689  0.22212295  0.69293199    -0.88300
O234        O  0.21356058  0.25943912  0.65582736    -0.75400
Mg235      Mg  0.20243828  0.25243162  0.80584566     1.58000
O236        O  0.12307598  0.21529007  0.77252402    -0.82800
H237        H  0.30658744  0.27177163  0.79975267    -0.06500
O238        O  0.26856638  0.29760797  0.69682660    -0.88000
H239        H  0.24514086  0.32999007  0.66662817    -0.06300
H240        H  0.30534018  0.19111741  0.71643586    -0.06500
C241        C  0.24932553  0.32143743  0.69167181     0.87100
C242        C  0.28038912  0.27357257  0.79298980     0.87700
C243        C  0.29687182  0.21651113  0.71325536     0.87700
H244        H  0.16545057  0.24520578  0.66312802    -0.06500
O245        O  0.15827327  0.27476854  0.73518492    -0.75500
Mg246      Mg  0.27124464  0.26135682  0.65863732     1.58000
H247        H  0.16366729  0.32258765  0.74886196    -0.06500
C248        C  0.29793600  0.37643930  0.75462405     0.92700
O249        O  0.34919722  0.29792355  0.69582290    -0.82700
C250        C  0.35384845  0.27664357  0.67368588     0.92700
O251        O  0.20353499  0.28771474  0.84920877    -0.82700
Mg252      Mg  0.16326686  0.21790625  0.73240461     1.58200
O253        O  0.31044978  0.35318527  0.73746261    -0.81000
O254        O  0.20002351  0.14049761  0.69319684    -0.82700
C255        C  0.99821951  0.24585533  0.88124146    -0.02500
O256        O  0.79329318  0.21805312  0.21237519    -0.88300
C257        C  0.69645873  0.20206781  0.23247758     0.87700
Mg258      Mg  0.83089159  0.21207724  0.24990626     1.58100
O259        O  0.71938002  0.28474582  0.22314089    -0.88000
O260        O  0.77531669  0.25562341  0.17687689    -0.75400
C261        C  0.76753580  0.29319604  0.37980330     0.92800
O262        O  0.76122228  0.16626388  0.26298371    -0.75200
O263        O  0.78790779  0.26930863  0.37384477    -0.82700
Mg264      Mg  0.75899631  0.17791599  0.20715522     1.58000
C265        C  0.68607554  0.35770265  0.28178438     0.92700
O266        O  0.75468265  0.18394649  0.15043268    -0.81000
H267        H  0.74059395  0.32025474  0.19566769    -0.06300
C268        C  0.71146259  0.25208908  0.31779474     0.87600
O269        O  0.83063980  0.26817833  0.25935567    -0.75500
O270        O  0.71920213  0.21196780  0.21424823    -0.88200
O271        O  0.67622579  0.33315651  0.26542799    -0.81000
C272        C  0.63561791  0.26512998  0.19672774     0.92800
C273        C  0.73665674  0.19843842  0.12829907     0.92700
Mg274      Mg  0.75130500  0.31361915  0.30020974     1.58000
O275        O  0.75128630  0.30839748  0.35693364    -0.81000
O276        O  0.75159315  0.32277327  0.24432625    -0.75200
O277        O  0.66060182  0.25330795  0.18121828    -0.81000
O278        O  0.80036029  0.13985227  0.20068027    -0.82800
O279        O  0.84944803  0.23690581  0.32839276    -0.81100
C280        C  0.73687471  0.30975816  0.22000744     0.87100
O281        O  0.79088027  0.27819711  0.29529358    -0.88200
O282        O  0.71764242  0.27304131  0.29615320    -0.88300
O283        O  0.73438964  0.23424923  0.33098294    -0.75400
Mg284      Mg  0.71783392  0.25411391  0.18108085     1.58000
O285        O  0.63887316  0.28039811  0.22342808    -0.82800
H286        H  0.82448591  0.24362651  0.18338773    -0.06500
O287        O  0.79209215  0.20429514  0.28589678    -0.88000
H288        H  0.77251296  0.16665893  0.31174753    -0.06300
H289        H  0.82155580  0.31347080  0.27860428    -0.06500
C290        C  0.77551350  0.17859706  0.28794910     0.87100
C291        C  0.79887452  0.23890977  0.19050132     0.87700
C292        C  0.81475656  0.28761272  0.27827043     0.87700
H293        H  0.68568055  0.24786037  0.32462452    -0.06500
O294        O  0.68114509  0.22123120  0.25204841    -0.75500
Mg295      Mg  0.79158886  0.23603653  0.32806059     1.58000
H296        H  0.69039439  0.17601267  0.23274873    -0.06500
C297        C  0.82482191  0.13382294  0.22010106     0.92700
O298        O  0.87333615  0.20853949  0.28803707    -0.82700
C299        C  0.87559395  0.22548380  0.31410222     0.92700
O300        O  0.71767147  0.22293164  0.13480398    -0.82700
Mg301      Mg  0.68078166  0.27748734  0.25942613     1.58200
O302        O  0.83521915  0.15575165  0.23991150    -0.81000
O303        O  0.71031196  0.35418620  0.30216796    -0.82700
C304        C  0.87874822  0.99656610  0.24253764    -0.02500
C305        C  0.00433507  0.26777755  0.37479084    -0.02500
O306        O  0.26358717  0.30389576  0.20335743    -0.88300
C307        C  0.17319814  0.26004532  0.21871807     0.87700
Mg308      Mg  0.30324954  0.27912969  0.17841625     1.58100
O309        O  0.22269826  0.26179691  0.28978603    -0.88000
O310        O  0.25448177  0.32317742  0.25289783    -0.75400
C311        C  0.31250853  0.12759570  0.24477182     0.92800
O312        O  0.22533894  0.25169535  0.15915363    -0.75200
O313        O  0.32101647  0.14418844  0.21943521    -0.82700
Mg314      Mg  0.21569643  0.30377568  0.17988628     1.58000
C315        C  0.23682662  0.18043229  0.35033087     0.92700
O316        O  0.20400051  0.35752209  0.19698603    -0.81000
H317        H  0.24823892  0.28705641  0.32338591    -0.06300
C318        C  0.22696010  0.17538056  0.23846823     0.87600
O319        O  0.32591612  0.26432028  0.22913986    -0.75500
O320        O  0.19440803  0.28168513  0.22348546    -0.88200
O321        O  0.21299621  0.19932963  0.33967838    -0.81000
C322        C  0.13352809  0.27135283  0.30477050     0.92800
C323        C  0.19023795  0.37122540  0.22168066     0.92700
Mg324      Mg  0.28171873  0.19388720  0.28603584     1.58000
O325        O  0.29556032  0.14101820  0.26775107    -0.81000
O326        O  0.27123297  0.24454717  0.30922046    -0.75200
O327        O  0.14792030  0.29416763  0.28795853    -0.81000
O328        O  0.23648194  0.32441258  0.13159416    -0.82800
O329        O  0.35299217  0.20933836  0.18680366    -0.81100
C330        C  0.24703257  0.26526602  0.30830698     0.87100
O331        O  0.30244794  0.21753467  0.24404642    -0.88200
O332        O  0.23399316  0.19367160  0.26174609    -0.88300
O333        O  0.24610242  0.17219162  0.21357201    -0.75400
Mg334      Mg  0.20206917  0.30647782  0.26909145     1.58000
O335        O  0.14791212  0.24354845  0.31121993    -0.82800
H336        H  0.29595698  0.33341583  0.22605689    -0.06500
O337        O  0.27455139  0.23516174  0.17794424    -0.88000
H338        H  0.24751580  0.20810487  0.14693854    -0.06300
H339        H  0.33769860  0.23904253  0.27129806    -0.06500
C340        C  0.24943588  0.23078753  0.16059213     0.87100
C341        C  0.27210292  0.32097727  0.22697969     0.87700
C342        C  0.32273054  0.23991842  0.24905920     0.87700
H343        H  0.20352246  0.16218263  0.23900345    -0.06500
O344        O  0.17021564  0.23491424  0.23779121    -0.75500
Mg345      Mg  0.29850275  0.19190569  0.19898561     1.58000
H346        H  0.15742454  0.26202691  0.19706510    -0.06500
C347        C  0.26038046  0.31365723  0.11377215     0.92700
O348        O  0.34696557  0.25340338  0.15407722    -0.82700
C349        C  0.36563516  0.23230104  0.16901377     0.92700
O350        O  0.18347925  0.35532103  0.24809243    -0.82700
Mg351      Mg  0.19325797  0.21798735  0.28742774     1.58200
O352        O  0.28370917  0.29551817  0.12626474    -0.81000
O353        O  0.26077056  0.17123629  0.33193172    -0.82700
C354        C  0.24930411  0.37148563  0.98302547    -0.02500
C355        C  0.37296583  0.99269291  0.26249400    -0.02500
O356        O  0.93543006  0.02404077  0.46451136    -0.88300
C357        C  0.99414777  0.94353087  0.48167953     0.87700
Mg358      Mg  0.95390182  0.06716693  0.43996611     1.58100
O359        O  0.98035734  0.99187151  0.55138938    -0.88000
O360        O  0.91408714  0.01159261  0.51288620    -0.75400
C361        C  0.10421625  0.08970500  0.50603037     0.92800
O362        O  0.99573520  0.99455340  0.42187477    -0.75200
O363        O  0.08428373  0.10154474  0.48438499    -0.82700
Mg364      Mg  0.94492509  0.97740636  0.44199513     1.58000
C365        C  0.05697527  0.01514176  0.61424177     0.92700
O366        O  0.89251298  0.95787574  0.45768377    -0.81000
H367        H  0.94905052  0.01342684  0.58311505    -0.06300
C368        C  0.06772548  0.00661601  0.50419864     0.87600
O369        O  0.96362134  0.09111580  0.49022554    -0.75500
O370        O  0.96862945  0.96062557  0.48582714    -0.88200
O371        O  0.04196995  0.99056768  0.60155821    -0.81000
C372        C  0.98910621  0.90307853  0.56527277     0.92800
C373        C  0.88028678  0.94156146  0.48188119     0.92700
Mg374      Mg  0.04001958  0.05806367  0.54953199     1.58000
O375        O  0.09316041  0.07283187  0.53040161    -0.81000
O376        O  0.98928396  0.04154972  0.57116022    -0.75200
O377        O  0.96412426  0.91306419  0.54788841    -0.81000
O378        O  0.92338710  0.99415073  0.39396063    -0.82800
O379        O  0.01963304  0.12128774  0.44391146    -0.81100
C380        C  0.97206269  0.01518897  0.56927615     0.87100
O381        O  0.01409552  0.07518300  0.50629731    -0.88200
O382        O  0.04688484  0.01195025  0.52595280    -0.88300
O383        O  0.06912463  0.02462082  0.47836266    -0.75400
Mg384      Mg  0.94072373  0.96355493  0.53020382     1.58000
O385        O  0.01233454  0.92236631  0.57397194    -0.82800
H386        H  0.89792127  0.05021636  0.48419089    -0.06500
O387        O  0.00299002  0.04477608  0.44034817    -0.88000
H388        H  0.03540296  0.02326303  0.40973769    -0.06300
H389        H  0.98596842  0.10673343  0.53209608    -0.06500
C390        C  0.01215410  0.02133239  0.42316883     0.87100
C391        C  0.91489106  0.02925152  0.48667413     0.87700
C392        C  0.98817837  0.09182610  0.51032775     0.87700
H393        H  0.08450107  0.98551409  0.50679221    -0.06500
O394        O  0.01917387  0.94472949  0.50103973    -0.75500
Mg395      Mg  0.04204430  0.07264726  0.46208109     1.58000
H396        H  0.99567556  0.92802680  0.46027414    -0.06500
C397        C  0.92983038  0.01947140  0.37626747     0.92700
O398        O  0.97136593  0.11588650  0.41688292    -0.82700
C399        C  0.99584450  0.13332359  0.42647100     0.92700
O400        O  0.89641467  0.93664946  0.50865090    -0.82700
Mg401      Mg  0.02921852  0.96960084  0.55045023     1.58200
O402        O  0.94262506  0.04576646  0.38792997    -0.81000
O403        O  0.06402927  0.04074625  0.59718522    -0.82700
O404        O  0.03308365  0.03091682  0.96499232    -0.88300
C405        C  0.93581126  0.00555064  0.96026437     0.87700
Mg406      Mg  0.07248917  0.99529945  0.96032743     1.58100
O407        O  0.96453697  0.02418522  0.03888752    -0.88000
O408        O  0.01588585  0.06809692  0.00017450    -0.75400
C409        C  0.02761412  0.87016585  0.05791319     0.92800
O410        O  0.99869063  0.97411778  0.92255300    -0.75200
O411        O  0.04523887  0.87446630  0.03223144    -0.82700
Mg412      Mg  0.99485786  0.03073763  0.92751787     1.58000
C413        C  0.94506681  0.96692378  0.12042398     0.92700
O414        O  0.99047887  0.08753019  0.92820647    -0.81000
H415        H  0.98663264  0.05562354  0.06950725    -0.06300
C416        C  0.96142243  0.92626568  0.01780687     0.87600
O417        O  0.07890283  0.99169797  0.01633642    -0.75500
O418        O  0.95862487  0.02544282  0.96546166    -0.88200
O419        O  0.93000714  0.98272341  0.09701007    -0.81000
C420        C  0.87796891  0.04592243  0.02153134     0.92800
C421        C  0.97525715  0.11180278  0.94136689     0.92700
Mg422      Mg  0.00690209  0.95111930  0.07184760     1.58000
O423        O  0.01255883  0.89438112  0.07169030    -0.81000
O424        O  0.00242889  0.00790808  0.07530941    -0.75200
O425        O  0.90089937  0.06066649  0.00529094    -0.81000
O426        O  0.03234174  0.03471893  0.88560570    -0.82800
O427        O  0.09748968  0.91864986  0.99084585    -0.81100
C428        C  0.98416334  0.03028365  0.06166670     0.87100
O429        O  0.04214675  0.95527204  0.03312989    -0.88200
O430        O  0.96772956  0.94990795  0.03575760    -0.88300
O431        O  0.98373112  0.91276379  0.00010078    -0.75400
Mg432      Mg  0.95863286  0.06282882  0.00251310     1.58000
O433        O  0.88402223  0.02123369  0.04062602    -0.82800
H434        H  0.06445706  0.06225981  0.98661661    -0.06500
O435        O  0.03508274  0.95716205  0.95997714    -0.88000
H436        H  0.01396408  0.92621642  0.92821687    -0.06300
H437        H  0.07503628  0.97576828  0.06374584    -0.06500
C438        C  0.01626323  0.95142435  0.93649494     0.87100
C439        C  0.03889755  0.05415154  0.98364348     0.87700
C440        C  0.06591606  0.97379996  0.03877246     0.87700
H441        H  0.93590898  0.91765678  0.01620893    -0.06500
O442        O  0.92304362  0.98794012  0.98317573    -0.75500
Mg443      Mg  0.04073577  0.91805547  0.99571982     1.58000
H444        H  0.92720775  0.00226476  0.93527989    -0.06500
C445        C  0.05850994  0.01717436  0.88073808     0.92700
O446        O  0.11598263  0.95885142  0.95760453    -0.82700
C447        C  0.12092924  0.93279642  0.97505279     0.92700
O448        O  0.95561042  0.10709445  0.96565469    -0.82700
Mg449      Mg  0.92822689  0.98539113  0.03962121     1.58200
O450        O  0.07189527  0.99997275  0.90390586    -0.81000
O451        O  0.97043261  0.94840505  0.11501979    -0.82700
O452        O  0.51378031  0.96515012  0.45505915    -0.88300
C453        C  0.42761682  0.97811390  0.50505189     0.87700
Mg454      Mg  0.55697303  0.94205649  0.47672747     1.58100
O455        O  0.47338453  0.05076349  0.49255291    -0.88000
O456        O  0.49991613  0.01251194  0.43112232    -0.75400
C457        C  0.57603067  0.01680575  0.62136451     0.92800
O458        O  0.48344371  0.92168422  0.51311928    -0.75200
O459        O  0.58464554  0.99013238  0.60703453    -0.82700
Mg460      Mg  0.46747172  0.93996926  0.46107540     1.58000
C461        C  0.49049691  0.11429046  0.56565780     0.92700
O462        O  0.45063745  0.95456140  0.40770319    -0.81000
H463        H  0.49624534  0.08198090  0.46148694    -0.06300
C464        C  0.48905668  0.00424582  0.58147466     0.87600
O465        O  0.58021417  0.99305109  0.48544716    -0.75500
O466        O  0.44631255  0.98330285  0.48137638    -0.88200
O467        O  0.46579802  0.10083684  0.55139068    -0.81000
C468        C  0.38329245  0.06252400  0.49270599     0.92800
C469        C  0.43377312  0.97791268  0.39372127     0.92700
Mg470      Mg  0.53959708  0.05195607  0.55382691     1.58000
O471        O  0.55733041  0.03866246  0.60725895    -0.81000
O472        O  0.52363402  0.07040993  0.50229646    -0.75200
O473        O  0.39606599  0.04552634  0.46957831    -0.81000
O474        O  0.48755298  0.89209138  0.44217858    -0.82800
O475        O  0.61378863  0.94537595  0.54584900    -0.81100
C476        C  0.49726542  0.06859121  0.48473486     0.87100
O477        O  0.56207888  0.00865670  0.53369961    -0.88200
O478        O  0.49336077  0.02584509  0.55999696    -0.88300
O479        O  0.50950690  0.98013516  0.58564232    -0.75400
Mg480      Mg  0.44890603  0.02787697  0.45257880     1.58000
O481        O  0.39987866  0.06991730  0.51836117    -0.82800
H482        H  0.54163151  0.98597335  0.41970193    -0.06500
O483        O  0.53362660  0.94121211  0.52389689    -0.88000
H484        H  0.50951380  0.91099731  0.55504464    -0.06300
H485        H  0.59489966  0.03525563  0.50758209    -0.06500
C486        C  0.50924846  0.92393069  0.53153803     0.87100
C487        C  0.51922609  0.98740521  0.43450342     0.87700
C488        C  0.57997711  0.01308627  0.50926270     0.87700
H489        H  0.46691586  0.00551661  0.59666500    -0.06500
O490        O  0.42650730  0.99740519  0.52938786    -0.75500
Mg491      Mg  0.56029416  0.96456357  0.56347320     1.58000
H492        H  0.41289271  0.95577292  0.50568491    -0.06500
C493        C  0.51315808  0.87532350  0.45103625     0.92700
O494        O  0.60399003  0.92079445  0.49841692    -0.82700
C495        C  0.62358209  0.92694745  0.52232875     0.92700
O496        O  0.42569480  0.00436080  0.40844440    -0.82700
Mg497      Mg  0.44867423  0.04835279  0.53925566     1.58200
O498        O  0.53802893  0.88860714  0.46557327    -0.81000
O499        O  0.51755609  0.09888955  0.57256587    -0.82700
C500        C  0.24698895  0.12258783  0.48611408    -0.02500
O501        O  0.53144153  0.03550624  0.97148367    -0.88300
C502        C  0.53900011  0.93781080  0.98947690     0.87700
Mg503      Mg  0.53462077  0.07129276  0.00851201     1.58100
O504        O  0.45729721  0.96767028  0.97678500    -0.88000
O505        O  0.49404755  0.02268162  0.93431885    -0.75400
C506        C  0.44290459  0.01585705  0.13460774     0.92800
O507        O  0.57319697  0.99722515  0.02672237    -0.75200
O508        O  0.46612029  0.03674504  0.12957652    -0.82700
Mg509      Mg  0.56985061  0.99826846  0.97010987     1.58000
C510        C  0.37927919  0.94089630  0.03570042     0.92700
O511        O  0.56982486  0.99957837  0.91249806    -0.81000
H512        H  0.42257184  0.99032485  0.94850458    -0.06300
C513        C  0.48475158  0.95746126  0.07363497     0.87600
O514        O  0.47713725  0.07483230  0.01133526    -0.75500
O515        O  0.53184897  0.96233847  0.97203240    -0.88200
O516        O  0.40333491  0.92919804  0.01857576    -0.81000
C517        C  0.47520548  0.88478901  0.94789545     0.92800
C518        C  0.55482846  0.98546638  0.88869748     0.92700
Mg519      Mg  0.42558270  0.00077369  0.05365785     1.58000
O520        O  0.42898980  0.00111733  0.11063984    -0.81000
O521        O  0.41854608  0.00065148  0.99709161    -0.75200
O522        O  0.48994970  0.90920912  0.93414236    -0.81000
O523        O  0.61313311  0.03410209  0.97182805    -0.82800
O524        O  0.50104412  0.09451588  0.08436257    -0.81100
C525        C  0.43240903  0.98602509  0.97304928     0.87100
O526        O  0.46209604  0.03799706  0.04885387    -0.88200
O527        O  0.46527119  0.96440728  0.05070076    -0.88300
O528        O  0.50091139  0.97969852  0.08865035    -0.75400
Mg529      Mg  0.49223926  0.96614219  0.93659241     1.58000
O530        O  0.45792519  0.88782174  0.97404924    -0.82800
H531        H  0.50988564  0.06955223  0.94178190    -0.06500
O532        O  0.53621672  0.03318481  0.04549532    -0.88000
H533        H  0.56781776  0.00783318  0.07504741    -0.06300
H534        H  0.42922788  0.06885630  0.02671866    -0.06500
C535        C  0.55951766  0.01300781  0.05011559     0.87100
C536        C  0.51228159  0.04364096  0.94867366     0.87700
C537        C  0.45511340  0.06105090  0.02938153     0.87700
H538        H  0.48862683  0.93174700  0.08067366    -0.06500
O539        O  0.51746483  0.92360436  0.00766012    -0.75500
Mg540      Mg  0.50124383  0.03683911  0.08499496     1.58000
H541        H  0.56471668  0.92912774  0.99039574    -0.06500
C542        C  0.61709561  0.05722228  0.99233996     0.92700
O543        O  0.53524186  0.11240172  0.04474778    -0.82700
C544        C  0.51658278  0.11771556  0.06936182     0.92700
O545        O  0.52878534  0.96786926  0.89323509    -0.82700
Mg546      Mg  0.46052263  0.92827163  0.01297235     1.58200
O547        O  0.59232836  0.07049572  0.00716285    -0.81000
O548        O  0.38400976  0.96307561  0.05695160    -0.82700
C549        C  0.50570164  0.24974237  0.13069384    -0.02500
O550        O  0.52594973  0.55877842  0.01623180    -0.88300
C551        C  0.51816031  0.50913799  0.92957424     0.87700
Mg552      Mg  0.55184875  0.53917907  0.05841959     1.58100
O553        O  0.44348504  0.50970402  0.97489490    -0.88000
O554        O  0.47478859  0.57493127  0.00278473    -0.75400
C555        C  0.49847728  0.38379740  0.06874102     0.92800
O556        O  0.57794800  0.50816229  0.98411542    -0.75200
O557        O  0.52235161  0.40267394  0.07690590    -0.82700
Mg558      Mg  0.55195474  0.55756676  0.97053107     1.58000
C559        C  0.38804781  0.42567358  0.99071385     0.92700
O560        O  0.52996002  0.60886844  0.95530602    -0.81000
H561        H  0.40686810  0.53491370  0.99716638    -0.06300
C562        C  0.50295174  0.42859520  0.98582707     0.87600
O563        O  0.50134764  0.52167253  0.07972831    -0.75500
O564        O  0.51058710  0.53149108  0.94877602    -0.88200
O565        O  0.40001281  0.44331533  0.96722678    -0.81000
C566        C  0.42937438  0.51198544  0.88685331     0.92800
C567        C  0.50496151  0.62021135  0.93885144     0.92700
Mg568      Mg  0.45058967  0.44571611  0.03712773     1.58000
O569        O  0.47333000  0.39445032  0.05213775    -0.81000
O570        O  0.42364591  0.49462286  0.02311337    -0.75200
O571        O  0.44462878  0.53688731  0.89891388    -0.81000
O572        O  0.59814019  0.58252056  0.99194572    -0.82800
O573        O  0.55448233  0.46853299  0.10879911    -0.81100
C574        C  0.42374598  0.51377636  0.99794586     0.87100
O575        O  0.49138076  0.47306837  0.05813455    -0.88200
O576        O  0.47709909  0.44480997  0.99137427    -0.88300
O577        O  0.52828865  0.42894171  0.00495374    -0.75400
Mg578      Mg  0.46173361  0.55391008  0.95197738     1.58000
O579        O  0.42636880  0.48486630  0.90303429    -0.82800
H580        H  0.49880337  0.58909370  0.04427170    -0.06500
O581        O  0.55852896  0.49405477  0.03276356    -0.88000
H582        H  0.59433301  0.46789499  0.01030618    -0.06300
H583        H  0.46089750  0.49367979  0.09117727    -0.06500
C584        C  0.57788590  0.48936079  0.00952102     0.87100
C585        C  0.50018224  0.57508989  0.02185153     0.87700
C586        C  0.48371072  0.49569653  0.07705872     0.87700
H587        H  0.50444234  0.41452150  0.96345641    -0.06500
O588        O  0.50100108  0.48286086  0.92739290    -0.75500
Mg589      Mg  0.54009023  0.45064484  0.05574234     1.58000
H590        H  0.54057733  0.51159249  0.91492014    -0.06500
C591        C  0.61646957  0.57341127  0.01636459     0.92700
O592        O  0.57650503  0.51907657  0.10495337    -0.82700
C593        C  0.57025906  0.49276321  0.12136425     0.92700
O594        O  0.48011161  0.60242155  0.93092326    -0.82700
Mg595      Mg  0.45126196  0.46440138  0.94926362     1.58200
O596        O  0.60413372  0.55673978  0.04022723    -0.81000
O597        O  0.40492101  0.41943332  0.01677943    -0.82700
O598        O  0.96065438  0.55510943  0.52142954    -0.88300
C599        C  0.05927696  0.53146408  0.52714884     0.87700
Mg600      Mg  0.92239253  0.51874771  0.52442933     1.58100
O601        O  0.03181803  0.55512010  0.44808651    -0.88000
O602        O  0.97808961  0.59456581  0.48785177    -0.75400
C603        C  0.97878342  0.40189018  0.42500500     0.92800
O604        O  0.99660981  0.49639871  0.56314708    -0.75200
O605        O  0.95932281  0.40416483  0.44971247    -0.82700
Mg606      Mg  0.99779883  0.55328245  0.55972064     1.58000
C607        C  0.05484843  0.50246914  0.36663848     0.92700
O608        O  0.99848612  0.61054720  0.55983889    -0.81000
H609        H  0.00797688  0.58816108  0.41894084    -0.06300
C610        C  0.03822950  0.45743066  0.46826683     0.87600
O611        O  0.91696055  0.51844370  0.46840543    -0.75500
O612        O  0.03524256  0.55056096  0.52204191    -0.88200
O613        O  0.06972286  0.51778131  0.38967835    -0.81000
C614        C  0.11797622  0.57592304  0.46844566     0.92800
C615        C  0.01566791  0.63414122  0.54755486     0.92700
Mg616      Mg  0.99256018  0.48377593  0.41386103     1.58000
O617        O  0.99275995  0.42713404  0.41214693    -0.81000
O618        O  0.99358683  0.54068569  0.41204095    -0.75200
O619        O  0.09441358  0.58834440  0.48573534    -0.81000
O620        O  0.95962416  0.55309699  0.60205482    -0.82800
O621        O  0.90028731  0.44164198  0.49338450    -0.81100
C622        C  0.01152715  0.56237843  0.42587212     0.87100
O623        O  0.95601843  0.48411730  0.45185504    -0.88200
O624        O  0.03142848  0.48157830  0.45018330    -0.88300
O625        O  0.01596748  0.44244388  0.48491942    -0.75400
Mg626      Mg  0.03580977  0.59003277  0.48640902     1.58000
O627        O  0.11235423  0.55425772  0.44677474    -0.82800
H628        H  0.92926979  0.58796926  0.50003162    -0.06500
O629        O  0.96104963  0.48119631  0.52498535    -0.88000
H630        H  0.98310570  0.44868733  0.55604408    -0.06300
H631        H  0.92273911  0.50510022  0.42085104    -0.06500
C632        C  0.97990178  0.47434172  0.54848073     0.87100
C633        C  0.95489461  0.57956765  0.50335545     0.87700
C634        C  0.93137813  0.50212266  0.44598437     0.87700
H635        H  0.06410582  0.44957487  0.47088632    -0.06500
O636        O  0.07408724  0.51662938  0.50382536    -0.75500
Mg637      Mg  0.95851610  0.44469913  0.48804860     1.58000
H638        H  0.06749172  0.52673834  0.55218873    -0.06500
C639        C  0.93481628  0.53365153  0.60529149     0.92700
O640        O  0.88039608  0.48140904  0.52574187    -0.82700
C641        C  0.87635324  0.45505398  0.50955645     0.92700
O642        O  0.03707514  0.62952598  0.52495616    -0.82700
Mg643      Mg  0.06973087  0.51759435  0.44705924     1.58200
O644        O  0.92264228  0.51898186  0.58059138    -0.81000
O645        O  0.02904090  0.48499964  0.37175884    -0.82700
O646        O  0.03130847  0.46281932  0.02824998    -0.88300
C647        C  0.04317898  0.55891720  0.00551644     0.87700
Mg648      Mg  0.03258138  0.42607698  0.99238859     1.58100
O649        O  0.96123819  0.53521183  0.02273212    -0.88000
O650        O  0.99619321  0.47935252  0.06588133    -0.75400
C651        C  0.93784013  0.48562347  0.86913050     0.92800
O652        O  0.07649827  0.49565121  0.97183769    -0.75200
O653        O  0.96217955  0.46550391  0.87438518    -0.82700
Mg654      Mg  0.07210158  0.49669720  0.02824728     1.58000
C655        C  0.88087123  0.56393062  0.97024547     0.92700
O656        O  0.07162302  0.49786934  0.08497932    -0.81000
H657        H  0.92842691  0.51417568  0.05347865    -0.06300
C658        C  0.98416139  0.54286571  0.92634252     0.87600
O659        O  0.97519756  0.42546776  0.98948542    -0.75500
O660        O  0.03593079  0.53562904  0.02437899    -0.88200
O661        O  0.90595921  0.57612725  0.98519179    -0.81000
C662        C  0.98390772  0.61779855  0.04830727     0.92800
C663        C  0.05831771  0.51384553  0.10856806     0.92700
Mg664      Mg  0.92500852  0.50220086  0.94926517     1.58000
O665        O  0.92460156  0.50244250  0.89212363    -0.81000
O666        O  0.92143482  0.50238092  0.00562184    -0.75200
O667        O  0.99791608  0.59224926  0.06131228    -0.81000
O668        O  0.11273715  0.45629608  0.02965752    -0.82800
O669        O  0.99983126  0.40524597  0.91600475    -0.81100
C670        C  0.93660567  0.51760254  0.02833632     0.87100
O671        O  0.96117714  0.46354632  0.95258814    -0.88200
O672        O  0.96488644  0.53727961  0.94951565    -0.88300
O673        O  0.00033565  0.51976501  0.91236689    -0.75400
Mg674      Mg  0.99733802  0.53584263  0.06110437     1.58000
O675        O  0.96489782  0.61583656  0.02323692    -0.82800
H676        H  0.00921540  0.43117565  0.05947125    -0.06500
O677        O  0.03589526  0.46376805  0.95486772    -0.88000
H678        H  0.06938000  0.48359739  0.92403818    -0.06300
H679        H  0.92747362  0.43393937  0.97390518    -0.06500
C680        C  0.06099223  0.48067695  0.94917118     0.87100
C681        C  0.01264123  0.45666482  0.05170921     0.87700
C682        C  0.95356203  0.44050829  0.97152708     0.87700
H683        H  0.98823769  0.56823434  0.91851344    -0.06500
O684        O  0.02115228  0.57454019  0.98842009    -0.75500
Mg685      Mg  0.99966237  0.46293934  0.91634835     1.58000
H686        H  0.06922908  0.56541781  0.00262057    -0.06500
C687        C  0.11514301  0.43229102  0.00977457     0.92700
O688        O  0.03238100  0.38536854  0.95662202    -0.82700
C689        C  0.01489512  0.38124824  0.93096837     0.92700
O690        O  0.03408816  0.53403801  0.10363445    -0.82700
Mg691      Mg  0.96356607  0.57407832  0.98622123     1.58200
O692        O  0.08948821  0.42208900  0.99459613    -0.81000
O693        O  0.88399166  0.54099656  0.94938555    -0.82700
C694        C  0.12583763  0.50109614  0.23830337    -0.02500
O695        O  0.53033809  0.53581381  0.46588406    -0.88300
C696        C  0.43016885  0.51569225  0.46524978     0.87700
Mg697      Mg  0.56891399  0.49843812  0.46167593     1.58100
O698        O  0.46249996  0.53308912  0.54371861    -0.88000
O699        O  0.51428945  0.57390103  0.50082747    -0.75400
C700        C  0.51749334  0.37612504  0.55983418     0.92800
O701        O  0.49172500  0.47940072  0.42731690    -0.75200
O702        O  0.53667307  0.38027493  0.53522137    -0.82700
Mg703      Mg  0.49042415  0.53614850  0.43008770     1.58000
C704        C  0.44038639  0.47288400  0.62430275     0.92700
O705        O  0.48874106  0.59412994  0.42966927    -0.81000
H706        H  0.48697984  0.56333612  0.57380388    -0.06300
C707        C  0.45500821  0.43678337  0.52036019     0.87600
O708        O  0.57541360  0.49624430  0.51786451    -0.75500
O709        O  0.45487474  0.53336216  0.46969444    -0.88200
O710        O  0.42651370  0.49061540  0.60166194    -0.81000
C711        C  0.37567497  0.55965314  0.53056211     0.92800
C712        C  0.47204422  0.61743212  0.44328751     0.92700
Mg713      Mg  0.50214937  0.45785670  0.57502710     1.58000
O714        O  0.50358912  0.40065745  0.57396966    -0.81000
O715        O  0.50051467  0.51487927  0.57920298    -0.75200
O716        O  0.39834729  0.57213698  0.51209512    -0.81000
O717        O  0.52619627  0.53509769  0.38561123    -0.82800
O718        O  0.59157670  0.42172242  0.49278672    -0.81100
C719        C  0.48305894  0.53818108  0.56598582     0.87100
O720        O  0.53754809  0.46123553  0.53585610    -0.88200
O721        O  0.46228244  0.45947608  0.53913224    -0.88300
O722        O  0.47696161  0.42201380  0.50318069    -0.75400
Mg723      Mg  0.45674806  0.57080733  0.50619031     1.58000
O724        O  0.38172869  0.53489852  0.54960868    -0.82800
H725        H  0.56241928  0.56752456  0.48595667    -0.06500
O726        O  0.52990780  0.46219223  0.46304034    -0.88000
H727        H  0.50568019  0.43122299  0.43356882    -0.06300
H728        H  0.57092252  0.48206697  0.56576406    -0.06500
C729        C  0.50946258  0.45657166  0.44084237     0.87100
C730        C  0.53675899  0.55944236  0.48390127     0.87700
C731        C  0.56179396  0.47945771  0.54086416     0.87700
H732        H  0.42902589  0.42987509  0.51785567    -0.06500
O733        O  0.41648123  0.49979588  0.48879290    -0.75500
Mg734      Mg  0.53433925  0.42381629  0.49873329     1.58000
H735        H  0.42039392  0.51313015  0.44057914    -0.06500
C736        C  0.55005843  0.51429922  0.38113126     0.92700
O737        O  0.61285505  0.45995165  0.45976212    -0.82700
C738        C  0.61663116  0.43391067  0.47776439     0.92700
O739        O  0.45284154  0.61213343  0.46769783    -0.82700
Mg740      Mg  0.42411442  0.49633761  0.54504412     1.58200
O741        O  0.56505573  0.49998904  0.40529056    -0.81000
O742        O  0.46647470  0.45545482  0.61885444    -0.82700
C743        C  0.00364047  0.76419843  0.61287586    -0.02500
O744        O  0.28939513  0.78920938  0.78593264    -0.88300
C745        C  0.26833595  0.69158705  0.79204253     0.87700
Mg746      Mg  0.25242156  0.82734033  0.78888607     1.58100
O747        O  0.28660469  0.72021829  0.71290405    -0.88000
O748        O  0.32827932  0.77360713  0.75118973    -0.75400
C749        C  0.12821410  0.77890810  0.69169311     0.92800
O750        O  0.23143727  0.75304230  0.82657746    -0.75200
O751        O  0.13251802  0.79631422  0.71714542    -0.82700
Mg752      Mg  0.28882492  0.75115179  0.82341902     1.58000
C753        C  0.22936794  0.69619732  0.63273747     0.92700
O754        O  0.34628818  0.74930180  0.82479608    -0.81000
H755        H  0.31722513  0.74267718  0.68095179    -0.06300
C756        C  0.18723878  0.71442674  0.73558801     0.87600
O757        O  0.25028983  0.83193316  0.73247435    -0.75500
O758        O  0.28674186  0.71541276  0.78597744    -0.88200
O759        O  0.24671040  0.68278441  0.65597786    -0.81000
C760        C  0.31306287  0.63599226  0.73212597     0.92800
C761        C  0.37151730  0.73439560  0.81261184     0.92700
Mg762      Mg  0.21061040  0.75811967  0.67925721     1.58000
O763        O  0.15239724  0.76253838  0.67881077    -0.81000
O764        O  0.26823101  0.75566701  0.67524141    -0.75200
O765        O  0.32655632  0.65948095  0.74798211    -0.81000
O766        O  0.28877155  0.78685318  0.86549734    -0.82800
O767        O  0.17489752  0.85171682  0.75681213    -0.81100
C768        C  0.29179143  0.73925277  0.68931568     0.87100
O769        O  0.21397178  0.79490217  0.71638530    -0.88200
O770        O  0.21092037  0.72032469  0.71684081    -0.88300
O771        O  0.17258773  0.73715332  0.75167738    -0.75400
Mg772      Mg  0.32542347  0.71685155  0.74953532     1.58000
O773        O  0.28812915  0.64078100  0.71285705    -0.82800
H774        H  0.32096637  0.82126043  0.76488550    -0.06500
O775        O  0.21451675  0.78999229  0.78966085    -0.88000
H776        H  0.18291108  0.76741480  0.82054967    -0.06300
H777        H  0.23601764  0.82634362  0.68491888    -0.06500
C778        C  0.20856995  0.77055100  0.81275078     0.87100
C779        C  0.31333004  0.79574721  0.76772570     0.87700
C780        C  0.23305083  0.81819427  0.71020226     0.87700
H781        H  0.17933462  0.68906661  0.73905512    -0.06500
O782        O  0.25135252  0.67767211  0.76972301    -0.75500
Mg783      Mg  0.17584736  0.79416077  0.75378575     1.58000
H784        H  0.26569355  0.68312595  0.81726799    -0.06500
C785        C  0.26948880  0.81162536  0.86964069     0.92700
O786        O  0.21512303  0.87054637  0.78952587    -0.82700
C787        C  0.18905581  0.87542496  0.77189327     0.92700
O788        O  0.36862388  0.71642740  0.78723377    -0.82700
Mg789      Mg  0.24912744  0.68249767  0.71337237     1.58200
O790        O  0.25437551  0.82602485  0.84550690    -0.81000
O791        O  0.20918385  0.72028913  0.63780694    -0.82700
C792        C  0.50102887  0.75614239  0.88250510    -0.02500
C793        C  0.43405069  0.74016062  0.80995890    -0.05700
C794        C  0.40478487  0.73810128  0.82900576     0.00200
C795        C  0.40778623  0.73940238  0.86347678    -0.08400
C796        C  0.43928719  0.74502067  0.87708018    -0.05800
C797        C  0.46954101  0.74917224  0.85891582     0.00200
C798        C  0.46668054  0.74347716  0.82386839    -0.08300
C799        C  0.49473428  0.73876860  0.79880165     0.62100
H800        H  0.43137973  0.73821232  0.78349102     0.12800
H801        H  0.44025074  0.74746741  0.90325972     0.12800
C802        C  0.37804666  0.73517169  0.88661586     0.62300
F803        F  0.48727924  0.71208149  0.77912360    -0.22900
F804        F  0.52573481  0.73188819  0.81190634    -0.20200
F805        F  0.49672461  0.76664356  0.77870677    -0.19900
F806        F  0.35947683  0.70790938  0.87782580    -0.19900
F807        F  0.35804947  0.76335561  0.88534930    -0.20200
F808        F  0.38806281  0.73023521  0.91902790    -0.22900
C809        C  0.03453862  0.77422664  0.66895526    -0.05700
C810        C  0.03637800  0.77127771  0.63411645     0.00200
C811        C  0.06894709  0.77781146  0.61958131    -0.08400
C812        C  0.09692283  0.78152754  0.64017107    -0.05800
C813        C  0.09527106  0.77923884  0.67418509     0.00200
C814        C  0.06341993  0.77699325  0.68920755    -0.08300
C815        C  0.05989515  0.77678221  0.72634585     0.62100
H816        H  0.01044815  0.77371446  0.68073112     0.12800
H817        H  0.12132259  0.78633143  0.62965676     0.12800
C818        C  0.07642394  0.78264940  0.58296582     0.62300
F819        F  0.02727944  0.77071421  0.73606994    -0.22900
F820        F  0.06909152  0.80724729  0.73836796    -0.20200
F821        F  0.08025488  0.75228153  0.74015607    -0.19900
F822        F  0.06690241  0.81424201  0.57311896    -0.19900
F823        F  0.06108221  0.75941283  0.56417579    -0.20200
F824        F  0.11029265  0.77953695  0.57604678    -0.22900
C825        C  0.10758695  0.50448696  0.14365613    -0.05700
C826        C  0.07313879  0.50978576  0.14207409     0.00200
C827        C  0.05469513  0.51106236  0.17175967    -0.08400
C828        C  0.07202706  0.50797325  0.20211892    -0.05800
C829        C  0.10747432  0.50588270  0.20424556     0.00200
C830        C  0.12559987  0.50486168  0.17326927    -0.08300
C831        C  0.16366592  0.50589831  0.16796533     0.62100
H832        H  0.12126855  0.50252256  0.12073895     0.12800
H833        H  0.05762028  0.50850102  0.22443693     0.12800
C834        C  0.01676526  0.51445164  0.17157396     0.62300
F835        F  0.17098368  0.52700649  0.14176819    -0.22900
F836        F  0.17521697  0.47453198  0.16032897    -0.20200
F837        F  0.18179217  0.51758909  0.19393755    -0.19900
F838        F  0.00304613  0.49116035  0.15098783    -0.19900
F839        F  0.00754690  0.54591895  0.16075354    -0.20200
F840        F  0.00335969  0.50954804  0.20261290    -0.22900
C841        C  0.04012368  0.68077744  0.57611997    -0.05700
C842        C  0.01205905  0.66754807  0.56129278     0.00200
C843        C  0.98113837  0.68449714  0.56338973    -0.08400
C844        C  0.98020070  0.71531089  0.57919359    -0.05800
C845        C  0.00834668  0.72909213  0.59564212     0.00200
C846        C  0.03682146  0.70628427  0.59894770    -0.08300
C847        C  0.05948446  0.69983905  0.62903678     0.62100
H848        H  0.06333930  0.66650713  0.57531058     0.12800
H849        H  0.95632490  0.72735072  0.58052457     0.12800
C850        C  0.94930776  0.67026292  0.54891439     0.62300
F851        F  0.06413545  0.66602142  0.63432403    -0.22900
F852        F  0.04609176  0.71081175  0.65791552    -0.20200
F853        F  0.09078830  0.71309001  0.62377818    -0.19900
F854        F  0.93966713  0.64293019  0.56737778    -0.19900
F855        F  0.95483080  0.66089367  0.51679056    -0.20200
F856        F  0.92308674  0.69302187  0.54873497    -0.22900
C857        C  0.08793753  0.47364038  0.32586978    -0.05700
C858        C  0.06998382  0.50186835  0.33357332     0.00200
C859        C  0.06797920  0.52813801  0.31068984    -0.08400
C860        C  0.08400420  0.52469421  0.28003434    -0.05800
C861        C  0.10476865  0.49716480  0.27174191     0.00200
C862        C  0.10857601  0.47162759  0.29790768    -0.08300
C863        C  0.13478536  0.44332352  0.30122373     0.62100
H864        H  0.08739408  0.45370375  0.34403167     0.12800
H865        H  0.08221599  0.54515149  0.26317882     0.12800
C866        C  0.04911951  0.55972235  0.31894761     0.62300
F867        F  0.13568264  0.42905681  0.33250138    -0.22900
F868        F  0.16672383  0.45470323  0.29656962    -0.20200
F869        F  0.12765524  0.41769038  0.28058696    -0.19900
F870        F  0.06444344  0.57463603  0.34538679    -0.19900
F871        F  0.01639889  0.55233713  0.32715738    -0.20200
F872        F  0.04848724  0.58214118  0.29280043    -0.22900
C873        C  0.49611388  0.68048409  0.94781443    -0.05700
C874        C  0.50532894  0.65477153  0.92686364     0.00200
C875        C  0.51177338  0.66167872  0.89377583    -0.08400
C876        C  0.50759700  0.69412646  0.88230199    -0.05800
C877        C  0.50035679  0.72180927  0.90272653     0.00200
C878        C  0.49169331  0.71378888  0.93658766    -0.08300
C879        C  0.47587369  0.73598713  0.96266256     0.62100
H880        H  0.49056416  0.67394926  0.97320340     0.12800
H881        H  0.51199187  0.69847806  0.85658547     0.12800
C882        C  0.52438917  0.63485427  0.87083608     0.62300
F883        F  0.44890590  0.71972994  0.97665739    -0.22900
F884        F  0.46340398  0.76588249  0.95164770    -0.20200
F885        F  0.49906360  0.74160093  0.98727445    -0.19900
F886        F  0.50014037  0.61100514  0.86691017    -0.19900
F887        F  0.55299128  0.62014636  0.88410106    -0.20200
F888        F  0.53242114  0.64743494  0.83999906    -0.22900
C889        C  0.50908123  0.34617211  0.11453661    -0.05700
C890        C  0.49937130  0.34938012  0.08190549     0.00200
C891        C  0.49256444  0.32062918  0.06372647    -0.08400
C892        C  0.49534132  0.28924063  0.07969061    -0.05800
C893        C  0.50282908  0.28545806  0.11371413     0.00200
C894        C  0.50928912  0.31597788  0.13162689    -0.08300
C895        C  0.51588123  0.32025757  0.16877570     0.62100
H896        H  0.51541363  0.36855222  0.12755603     0.12800
H897        H  0.49219177  0.26739684  0.06516880     0.12800
C898        C  0.48428950  0.32298159  0.02728473     0.62300
F899        F  0.50075596  0.34915477  0.17966155    -0.22900
F900        F  0.54995140  0.32282807  0.17425609    -0.20200
F901        F  0.50324644  0.29573395  0.18876364    -0.19900
F902        F  0.50955939  0.33957095  0.01088569    -0.19900
F903        F  0.45433503  0.33995258  0.02259287    -0.20200
F904        F  0.48109174  0.29202228  0.01348312    -0.22900
C905        C  0.50748493  0.83298755  0.94250032    -0.05700
C906        C  0.47932865  0.85179531  0.93317896     0.00200
C907        C  0.45856557  0.84042748  0.90793116    -0.08400
C908        C  0.46692568  0.81052618  0.89275412    -0.05800
C909        C  0.49470852  0.78956620  0.90214439     0.00200
C910        C  0.51612718  0.80244257  0.92778617    -0.08300
C911        C  0.54957639  0.78729674  0.93892133     0.62100
H912        H  0.52369392  0.84351216  0.96096466     0.12800
H913        H  0.45123495  0.80495009  0.87201328     0.12800
C914        C  0.42742050  0.85878085  0.89529298     0.62300
F915        F  0.56010067  0.79987991  0.96870654    -0.22900
F916        F  0.57395451  0.79487141  0.91608319    -0.20200
F917        F  0.54772295  0.75361102  0.94359936    -0.19900
F918        F  0.43109248  0.86591802  0.86209514    -0.19900
F919        F  0.42095729  0.88815479  0.91119728    -0.20200
F920        F  0.39988719  0.83858591  0.89940365    -0.22900
C921        C  0.48549314  0.17109061  0.07619139    -0.05700
C922        C  0.51443527  0.15180056  0.08166899     0.00200
C923        C  0.54158419  0.16531888  0.09818634    -0.08400
C924        C  0.53831832  0.19732215  0.11026780    -0.05800
C925        C  0.50845154  0.21769582  0.10780391     0.00200
C926        C  0.48157304  0.20359705  0.08869089    -0.08300
C927        C  0.44746994  0.21924427  0.08082755     0.62100
H928        H  0.46515379  0.16017047  0.06242850     0.12800
H929        H  0.55976076  0.20460542  0.12398190     0.12800
C930        C  0.57367836  0.14512042  0.10452645     0.62300
F931        F  0.44381773  0.22183710  0.04700148    -0.22900
F932        F  0.44227802  0.25019070  0.09342068    -0.20200
F933        F  0.42250958  0.19891270  0.09291791    -0.19900
F934        F  0.58868537  0.13748480  0.07495882    -0.19900
F935        F  0.56608436  0.11605427  0.12129039    -0.20200
F936        F  0.59691575  0.16192308  0.12318558    -0.22900
C937        C  0.32172206  0.05619760  0.50014186    -0.05700
C938        C  0.34852357  0.07534257  0.48906842     0.00200
C939        C  0.34206242  0.10650395  0.47474450    -0.08400
C940        C  0.30913101  0.11881456  0.47458036    -0.05800
C941        C  0.28065460  0.10068911  0.48636147     0.00200
C942        C  0.28770070  0.06679855  0.49746510    -0.08300
C943        C  0.26360073  0.03871240  0.50616438     0.62100
H944        H  0.32759860  0.03172632  0.51019550     0.12800
H945        H  0.30569146  0.14426271  0.46647282     0.12800
C946        C  0.37020929  0.12691806  0.45994590     0.62300
F947        F  0.27226078  0.01111202  0.48809255    -0.22900
F948        F  0.23043287  0.04461566  0.49974238    -0.20200
F949        F  0.26705881  0.03036913  0.53916476    -0.19900
F950        F  0.38609961  0.10893116  0.43574503    -0.19900
F951        F  0.39321275  0.13453871  0.48414513    -0.20200
F952        F  0.35857844  0.15627797  0.44572675    -0.22900
C953        C  0.99633423  0.84361733  0.55186221    -0.05700
C954        C  0.99180377  0.86795947  0.57567050     0.00200
C955        C  0.99173532  0.85882864  0.60899775    -0.08400
C956        C  0.99513821  0.82530204  0.61736140    -0.05800
C957        C  0.99993153  0.79912919  0.59431102     0.00200
C958        C  0.00074171  0.80942408  0.55983395    -0.08300
C959        C  0.00517873  0.78829392  0.52929568     0.62100
H960        H  0.99686971  0.85171340  0.52626992     0.12800
H961        H  0.99334026  0.81906431  0.64319830     0.12800
C962        C  0.98683533  0.88436929  0.63584515     0.62300
F963        F  0.97842453  0.79394241  0.50805069    -0.22900
F964        F  0.00701627  0.75493310  0.53512047    -0.20200
F965        F  0.03413908  0.79768668  0.51316913    -0.19900
F966        F  0.95738356  0.90197082  0.63015543    -0.19900
F967        F  0.01342717  0.90605882  0.63605942    -0.20200
F968        F  0.98496380  0.86988820  0.66688931    -0.22900
C969        C  0.16267609  0.09467948  0.52838598    -0.05700
C970        C  0.14102148  0.09379114  0.50116557     0.00200
C971        C  0.15528790  0.09382734  0.46939534    -0.08400
C972        C  0.18960852  0.09967382  0.46619977    -0.05800
C973        C  0.21214748  0.10460133  0.49294132     0.00200
C974        C  0.19784086  0.09844844  0.52513546    -0.08300
C975        C  0.21728817  0.09405216  0.55715508     0.62100
H976        H  0.15199436  0.09208290  0.55277936     0.12800
H977        H  0.19745841  0.10252556  0.44147874     0.12800
C978        C  0.13474545  0.08830412  0.43810477     0.62300
F979        F  0.20962827  0.11974129  0.57801306    -0.22900
F980        F  0.25135885  0.09241377  0.55295114    -0.20200
F981        F  0.20793063  0.06463817  0.57233777    -0.19900
F982        F  0.11495761  0.11591028  0.43116290    -0.19900
F983        F  0.11483100  0.06071675  0.44195462    -0.20200
F984        F  0.15475368  0.08281033  0.41090588    -0.22900
C985        C  0.40122590  0.97330122  0.20693278    -0.05700
C986        C  0.40001778  0.99719246  0.23272284     0.00200
C987        C  0.41898834  0.02700190  0.22539679    -0.08400
C988        C  0.43267049  0.03209640  0.19340853    -0.05800
C989        C  0.43160368  0.00804107  0.16894587     0.00200
C990        C  0.41907322  0.97675250  0.17766540    -0.08300
C991        C  0.42253393  0.94659230  0.15581402     0.62100
H992        H  0.38609524  0.95169466  0.20660126     0.12800
H993        H  0.44402266  0.05570117  0.18728882     0.12800
C994        C  0.42459727  0.05608512  0.24797038     0.62300
F995        F  0.41914225  0.91734637  0.17382689    -0.22900
F996        F  0.45384937  0.94562328  0.14142770    -0.20200
F997        F  0.39801192  0.94766465  0.13175632    -0.19900
F998        F  0.45844325  0.06324449  0.24883192    -0.19900
F999        F  0.41486768  0.05056550  0.27971044    -0.20200
F1000       F  0.40739982  0.08359242  0.23573687    -0.22900
C1001       C  0.42475321  0.98736220  0.30124976    -0.05700
C1002       C  0.38942655  0.98476279  0.29738865     0.00200
C1003       C  0.37155397  0.97022346  0.32533892    -0.08400
C1004       C  0.38847204  0.96595784  0.35556188    -0.05800
C1005       C  0.42173450  0.97444293  0.35966886     0.00200
C1006       C  0.44085663  0.98375612  0.33209673    -0.08300
C1007       C  0.47799629  0.99053403  0.33568122     0.62100
H1008       H  0.44004607  0.99364725  0.28035493     0.12800
H1009       H  0.37541594  0.95668810  0.37709817     0.12800
C1010       C  0.33541794  0.95746212  0.32558749     0.62300
F1011       F  0.49260239  0.99883004  0.30586741    -0.22900
F1012       F  0.49412679  0.96255138  0.34824637    -0.20200
F1013       F  0.48269719  0.01651955  0.35693430    -0.19900
F1014       F  0.33481753  0.92489696  0.31565886    -0.19900
F1015       F  0.31442159  0.97636709  0.30606236    -0.20200
F1016       F  0.32171041  0.95822179  0.35686612    -0.22900
C1017       C  0.18585059  0.37557013  0.98028369    -0.05700
C1018       C  0.21567010  0.39260183  0.98871605     0.00200
C1019       C  0.21000934  0.42622875  0.99970529    -0.08400
C1020       C  0.17735531  0.43562981  0.00980281    -0.05800
C1021       C  0.14873654  0.41707410  0.00281922     0.00200
C1022       C  0.15311298  0.38693893  0.98595498    -0.08300
C1023       C  0.12393987  0.36632825  0.97326856     0.62100
H1024       H  0.18806835  0.35294065  0.96717502     0.12800
H1025       H  0.17371051  0.46001773  0.02015476     0.12800
C1026       C  0.23294645  0.45620093  0.99726566     0.62300
F1027       F  0.13438941  0.33659211  0.95992422    -0.22900
F1028       F  0.10703353  0.38375958  0.94863479    -0.20200
F1029       F  0.10227854  0.35875460  0.99873167    -0.19900
F1030       F  0.26386351  0.45059779  0.98415615    -0.19900
F1031       F  0.23679389  0.46982122  0.02800144    -0.20200
F1032       F  0.21762390  0.47997512  0.97715739    -0.22900
C1033       C  0.30794697  0.38593409  0.95914439    -0.05700
C1034       C  0.28468188  0.38951686  0.98567018     0.00200
C1035       C  0.29861590  0.40353457  0.01535976    -0.08400
C1036       C  0.33198707  0.41519073  0.01530305    -0.05800
C1037       C  0.35326023  0.41259328  0.98813536     0.00200
C1038       C  0.34145962  0.39645609  0.96001296    -0.08300
C1039       C  0.36502805  0.38762810  0.93197012     0.62100
H1040       H  0.30082659  0.37357948  0.93706806     0.12800
H1041       H  0.34188191  0.42642147  0.03734448     0.12800
C1042       C  0.28138206  0.40690695  0.04857308     0.62300
F1043       F  0.34970904  0.36842987  0.90843284    -0.22900
F1044       F  0.39219556  0.36982684  0.94441621    -0.20200
F1045       F  0.37628343  0.41597301  0.91635713    -0.19900
F1046       F  0.29834105  0.38763329  0.07172862    -0.19900
F1047       F  0.24833091  0.39784553  0.04883739    -0.20200
F1048       F  0.28311601  0.43941986  0.05862870    -0.22900
C1049       C  0.14485063  0.40995212  0.21089301    -0.05700
C1050       C  0.17829426  0.40584595  0.21905286     0.00200
C1051       C  0.19659119  0.43306509  0.23044488    -0.08400
C1052       C  0.17986412  0.46384778  0.23446884    -0.05800
C1053       C  0.14443698  0.46711724  0.23179467     0.00200
C1054       C  0.12662416  0.43825669  0.21976863    -0.08300
C1055       C  0.08858840  0.43308195  0.21839491     0.62100
H1056       H  0.13184721  0.38869392  0.20119290     0.12800
H1057       H  0.19441623  0.48457825  0.24237017     0.12800
C1058       C  0.23329931  0.42895610  0.23940852     0.62300
F1059       F  0.07721702  0.43868433  0.18660158    -0.22900
F1060       F  0.07077943  0.45227705  0.23985583    -0.20200
F1061       F  0.08082640  0.40069631  0.22712371    -0.19900
F1062       F  0.25054709  0.41539026  0.21332745    -0.19900
F1063       F  0.23641603  0.40800398  0.26654868    -0.20200
F1064       F  0.24786741  0.45891350  0.24687335    -0.22900
C1065       C  0.24369083  0.13370107  0.38877399    -0.05700
C1066       C  0.23755173  0.16749785  0.38481851     0.00200
C1067       C  0.23906830  0.18783301  0.41269739    -0.08400
C1068       C  0.24421764  0.17296267  0.44417882    -0.05800
C1069       C  0.24642991  0.13806876  0.44933952     0.00200
C1070       C  0.24967706  0.11840506  0.41959711    -0.08300
C1071       C  0.25945325  0.08144825  0.41814739     0.62100
H1072       H  0.24500329  0.11932162  0.36653395     0.12800
H1073       H  0.24588109  0.18904396  0.46498365     0.12800
C1074       C  0.23631969  0.22522492  0.40891972     0.62300
F1075       F  0.29357653  0.07752905  0.42264220    -0.22900
F1076       F  0.25196275  0.06782945  0.38793584    -0.20200
F1077       F  0.24272238  0.06259913  0.44099100    -0.19900
F1078       F  0.20476085  0.23384835  0.39725545    -0.19900
F1079       F  0.26016882  0.23649083  0.38692387    -0.20200
F1080       F  0.24132450  0.24103750  0.43847926    -0.22900
C1081       C  0.42470381  0.20917642  0.16816575    -0.05700
C1082       C  0.40267989  0.23651288  0.16716831     0.00200
C1083       C  0.41671560  0.26835212  0.16582319    -0.08400
C1084       C  0.45022117  0.27138222  0.15701275    -0.05800
C1085       C  0.47318349  0.24433536  0.15335662     0.00200
C1086       C  0.45988397  0.21255128  0.16365711    -0.08300
C1087       C  0.47999772  0.18103261  0.17084915     0.62100
H1088       H  0.41436477  0.18476505  0.17257576     0.12800
H1089       H  0.45661369  0.29618707  0.15074134     0.12800
C1090       C  0.39672863  0.30011394  0.17179387     0.62300
F1091       F  0.47166993  0.16914316  0.20185816    -0.22900
F1092       F  0.51405454  0.18533216  0.17077548    -0.20200
F1093       F  0.47189171  0.15717293  0.14820697    -0.19900
F1094       F  0.37424065  0.29564497  0.19712658    -0.19900
F1095       F  0.37982129  0.30969668  0.14340154    -0.20200
F1096       F  0.41748464  0.32576099  0.18089043    -0.22900
C1097       C  0.33140118  0.08154078  0.28106851    -0.05700
C1098       C  0.32428290  0.09240469  0.24911451     0.00200
C1099       C  0.32929366  0.07015656  0.22313518    -0.08400
C1100       C  0.34233416  0.03827524  0.23038088    -0.05800
C1101       C  0.35187589  0.02669406  0.26245028     0.00200
C1102       C  0.34588703  0.05025054  0.28917045    -0.08300
C1103       C  0.35354911  0.04618719  0.32641561     0.62100
H1104       H  0.32625150  0.09926595  0.30007322     0.12800
H1105       H  0.34711913  0.02229497  0.20986343     0.12800
C1106       C  0.32104855  0.07968134  0.18763587     0.62300
F1107       F  0.33256207  0.02345148  0.34063572    -0.22900
F1108       F  0.34807852  0.07502744  0.34376795    -0.20200
F1109       F  0.38652268  0.03829199  0.33282588    -0.19900
F1110       F  0.34325880  0.10332768  0.17639101    -0.19900
F1111       F  0.28865708  0.09212838  0.18555597    -0.20200
F1112       F  0.32330238  0.05286041  0.16689674    -0.22900
C1113       C  0.28214368  0.32990343  0.02211125    -0.05700
C1114       C  0.25074845  0.34203740  0.01017682     0.00200
C1115       C  0.22298481  0.33163549  0.02966488    -0.08400
C1116       C  0.22747309  0.32882176  0.06381732    -0.05800
C1117       C  0.25914834  0.32138902  0.07741023     0.00200
C1118       C  0.28667148  0.31865995  0.05519509    -0.08300
C1119       C  0.32084498  0.30575833  0.06615760     0.62100
H1120       H  0.30367342  0.33163597  0.00613440     0.12800
H1121       H  0.20539132  0.32549185  0.07894220     0.12800
C1122       C  0.19662823  0.30789002  0.01693747     0.62300
F1123       F  0.34381715  0.30629827  0.04071554    -0.22900
F1124       F  0.31824891  0.27325893  0.07711519    -0.20200
F1125       F  0.33312171  0.32511442  0.09114634    -0.19900
F1126       F  0.20052419  0.30063447  0.98416497    -0.19900
F1127       F  0.16494121  0.32078697  0.02214969    -0.20200
F1128       F  0.19911420  0.27788313  0.03394812    -0.22900
C1129       C  0.99303536  0.32883307  0.36898674    -0.05700
C1130       C  0.00046369  0.30247655  0.39159316     0.00200
C1131       C  0.00616238  0.31155325  0.42541545    -0.08400
C1132       C  0.99705336  0.34399542  0.43486868    -0.05800
C1133       C  0.98711670  0.36870320  0.41217512     0.00200
C1134       C  0.98710033  0.36163045  0.37837094    -0.08300
C1135       C  0.97932697  0.38803197  0.35220367     0.62100
H1136       H  0.99125576  0.32327523  0.34320041     0.12800
H1137       H  0.99816239  0.35065065  0.46057925     0.12800
C1138       C  0.02008752  0.28913061  0.45290028     0.62300
F1139       F  0.97644847  0.37474732  0.32112014    -0.22900
F1140       F  0.00484680  0.41094213  0.35119430    -0.20200
F1141       F  0.94938557  0.40391121  0.35928959    -0.19900
F1142       F  0.03372566  0.30763373  0.47796939    -0.19900
F1143       F  0.04559040  0.26900493  0.44210439    -0.20200
F1144       F  0.99485962  0.27039273  0.46660798    -0.22900
C1145       C  0.02758813  0.17713561  0.39973819    -0.05700
C1146       C  0.99863639  0.16833938  0.41632323     0.00200
C1147       C  0.97704183  0.19331992  0.42758483    -0.08400
C1148       C  0.98318362  0.22629933  0.41781415    -0.05800
C1149       C  0.01082774  0.23599089  0.39788547     0.00200
C1150       C  0.03609435  0.21029977  0.39317254    -0.08300
C1151       C  0.07319527  0.21508397  0.38565142     0.62100
H1152       H  0.04465628  0.15724489  0.39315624     0.12800
H1153       H  0.96402114  0.24418413  0.42290155     0.12800
C1154       C  0.94738769  0.18505830  0.44937612     0.62300
F1155       F  0.09237343  0.18767373  0.39516786    -0.22900
F1156       F  0.08622796  0.24092825  0.40311320    -0.20200
F1157       F  0.07789108  0.21911980  0.35237839    -0.19900
F1158       F  0.95841752  0.16792202  0.47719495    -0.19900
F1159       F  0.92506110  0.16564507  0.43237644    -0.20200
F1160       F  0.93056063  0.21327573  0.45948296    -0.22900
C1161       C  0.06382764  0.28903238  0.36483587    -0.05700
C1162       C  0.03521905  0.27396218  0.35032115     0.00200
C1163       C  0.03824504  0.26849045  0.31528772    -0.08400
C1164       C  0.07093059  0.26689072  0.30138787    -0.05800
C1165       C  0.09945644  0.27742073  0.31840505     0.00200
C1166       C  0.09513560  0.29180551  0.34930768    -0.08300
C1167       C  0.12386839  0.30923916  0.36620667     0.62100
H1168       H  0.06244616  0.29732171  0.38984826     0.12800
H1169       H  0.07410795  0.25849582  0.27636608     0.12800
C1170       C  0.01002385  0.26836263  0.28990120     0.62300
F1171       F  0.11445607  0.32218438  0.39618091    -0.22900
F1172       F  0.13457119  0.33515075  0.34631707    -0.20200
F1173       F  0.15024506  0.28731788  0.37167560    -0.19900
F1174       F  0.98134085  0.28425416  0.30019296    -0.19900
F1175       F  0.00311138  0.23621205  0.28105016    -0.20200
F1176       F  0.01990733  0.28541598  0.26175977    -0.22900
C1177       C  0.92091682  0.95732636  0.21185398    -0.05700
C1178       C  0.90961106  0.99006997  0.21815525     0.00200
C1179       C  0.92277093  0.01439525  0.19595873    -0.08400
C1180       C  0.92650576  0.00570350  0.16297152    -0.05800
C1181       C  0.93418826  0.97287828  0.15497279     0.00200
C1182       C  0.93443696  0.94857293  0.18084344    -0.08300
C1183       C  0.94602496  0.91329048  0.17515190     0.62100
H1184       H  0.91671772  0.93821047  0.23030047     0.12800
H1185       H  0.93161192  0.02516303  0.14499443     0.12800
C1186       C  0.94955428  0.03860720  0.20694022     0.62300
F1187       F  0.94034243  0.89294076  0.20226496    -0.22900
F1188       F  0.98004614  0.91272347  0.16883291    -0.20200
F1189       F  0.92887857  0.90061017  0.14867280    -0.19900
F1190       F  0.95663116  0.03567386  0.24017514    -0.19900
F1191       F  0.93960040  0.07067058  0.19910465    -0.20200
F1192       F  0.97946277  0.03243692  0.19074645    -0.22900
C1193       C  0.92514413  0.99262657  0.28769985    -0.05700
C1194       C  0.89233941  0.00319229  0.27862088     0.00200
C1195       C  0.87317150  0.02060791  0.30342443    -0.08400
C1196       C  0.88883683  0.02946585  0.33287185    -0.05800
C1197       C  0.92055541  0.01791183  0.34133815     0.00200
C1198       C  0.93925670  0.99926924  0.31868669    -0.08300
C1199       C  0.97386811  0.98593708  0.32763182     0.62100
H1200       H  0.93979554  0.97803088  0.27099211     0.12800
H1201       H  0.87493020  0.04328448  0.35110779     0.12800
C1202       C  0.83586008  0.02930153  0.30200082     0.62300
F1203       F  0.99028203  0.97311158  0.30063144    -0.22900
F1204       F  0.97106442  0.96103537  0.35119564    -0.20200
F1205       F  0.99325665  0.01110277  0.34004619    -0.19900
F1206       F  0.81825732  0.00950453  0.28119797    -0.19900
F1207       F  0.83154330  0.06217064  0.29268164    -0.20200
F1208       F  0.82145398  0.02486915  0.33270755    -0.22900
C1209       C  0.88135398  0.05923255  0.23833377    -0.05700
C1210       C  0.86110877  0.03112996  0.23153883     0.00200
C1211       C  0.82797184  0.03935567  0.21847137    -0.08400
C1212       C  0.81989332  0.07311113  0.21130229    -0.05800
C1213       C  0.83985721  0.09967787  0.22104977     0.00200
C1214       C  0.87173791  0.09246480  0.23427258    -0.08300
C1215       C  0.89564498  0.11932051  0.24555160     0.62100
H1216       H  0.90472352  0.05532415  0.25067517     0.12800
H1217       H  0.79555217  0.07905256  0.20063270     0.12800
C1218       C  0.79760085  0.01723681  0.21316534     0.62300
F1219       F  0.92741543  0.10705365  0.25279247    -0.22900
F1220       F  0.88344111  0.13343856  0.27388478    -0.20200
F1221       F  0.89897173  0.14332321  0.22111168    -0.19900
F1222       F  0.79979010  0.98611280  0.22655508    -0.19900
F1223       F  0.79131805  0.01501603  0.17978041    -0.20200
F1224       F  0.76972622  0.03164065  0.22761488    -0.22900
C1225       C  0.90989673  0.26544038  0.34327919    -0.05700
C1226       C  0.90906753  0.23517127  0.32738363     0.00200
C1227       C  0.93890314  0.21594792  0.32633215    -0.08400
C1228       C  0.96846404  0.22873105  0.34052174    -0.05800
C1229       C  0.96929022  0.25879273  0.35833008     0.00200
C1230       C  0.93672051  0.27479984  0.36326817    -0.08300
C1231       C  0.92450580  0.29803212  0.39064772     0.62100
H1232       H  0.88726675  0.28062095  0.34315238     0.12800
H1233       H  0.99153565  0.21461289  0.33855094     0.12800
C1234       C  0.93965322  0.18194026  0.31109407     0.62300
F1235       F  0.92330883  0.33034887  0.37900314    -0.22900
F1236       F  0.94239576  0.29608380  0.41940573    -0.20200
F1237       F  0.89216786  0.28986597  0.40004745    -0.19900
F1238       F  0.93371169  0.18481183  0.27763586    -0.19900
F1239       F  0.91541010  0.16235054  0.32558073    -0.20200
F1240       F  0.97033536  0.16613449  0.31559709    -0.22900
C1241       C  0.59945952  0.26950835  0.14902160    -0.05700
C1242       C  0.60214505  0.26182366  0.18222447     0.00200
C1243       C  0.57422685  0.24935536  0.19956141    -0.08400
C1244       C  0.54381444  0.24531141  0.18246142    -0.05800
C1245       C  0.54039029  0.25304987  0.14855911     0.00200
C1246       C  0.57032537  0.26386041  0.13110975    -0.08300
C1247       C  0.57488588  0.26952726  0.09389275     0.62100
H1248       H  0.62132343  0.27929692  0.13652366     0.12800
H1249       H  0.52211689  0.23726159  0.19606138     0.12800
C1250       C  0.57655975  0.24021872  0.23587977     0.62300
F1251       F  0.57355748  0.30315099  0.08686531    -0.22900
F1252       F  0.55220405  0.25375827  0.07429406    -0.20200
F1253       F  0.60600289  0.25759977  0.08429537    -0.19900
F1254       F  0.58182419  0.26842803  0.25398569    -0.19900
F1255       F  0.60282708  0.21810401  0.24120183    -0.20200
F1256       F  0.54753390  0.22550795  0.24722403    -0.22900
C1257       C  0.01453167  0.30583605  0.87759822    -0.05700
C1258       C  0.00539653  0.27938394  0.89983486     0.00200
C1259       C  0.00342848  0.28802545  0.93432427    -0.08400
C1260       C  0.00516235  0.32195458  0.94233545    -0.05800
C1261       C  0.01181266  0.34708585  0.91918063     0.00200
C1262       C  0.01825767  0.33876807  0.88657469    -0.08300
C1263       C  0.02912707  0.36442372  0.86108063     0.62100
H1264       H  0.01616418  0.30104718  0.85158691     0.12800
H1265       H  0.00207226  0.32912116  0.96779661     0.12800
C1266       C  0.00123374  0.26601152  0.96531997     0.62300
F1267       F  0.03920853  0.34998953  0.83200964    -0.22900
F1268       F  0.05583913  0.38227578  0.87303373    -0.20200
F1269       F  0.00276866  0.38577822  0.85393880    -0.19900
F1270       F  0.02794693  0.27326540  0.98578170    -0.19900
F1271       F  0.00251148  0.23256495  0.96097932    -0.20200
F1272       F  0.97193073  0.27335749  0.98189870    -0.22900
C1273       C  0.01706191  0.18726106  0.90223799    -0.05700
C1274       C  0.99219559  0.21285639  0.90255947     0.00200
C1275       C  0.96118638  0.20384620  0.91871269    -0.08400
C1276       C  0.95649804  0.17068147  0.93003815    -0.05800
C1277       C  0.98167161  0.14619640  0.92843724     0.00200
C1278       C  0.01317769  0.15535799  0.91558598    -0.08300
C1279       C  0.04339108  0.13179464  0.91532702     0.62100
H1280       H  0.04010756  0.19073473  0.88963448     0.12800
H1281       H  0.93265068  0.16386250  0.94075788     0.12800
C1282       C  0.93207305  0.22718598  0.92606069     0.62300
F1283       F  0.07288956  0.14785629  0.90745234    -0.22900
F1284       F  0.03859393  0.10749401  0.89223035    -0.20200
F1285       F  0.04794708  0.11749416  0.94615643    -0.19900
F1286       F  0.90540432  0.22028248  0.90555057    -0.19900
F1287       F  0.93989449  0.26008818  0.92276917    -0.20200
F1288       F  0.92191172  0.22235989  0.95832091    -0.22900
C1289       C  0.02864737  0.24139468  0.82429235    -0.05700
C1290       C  0.03130738  0.24201035  0.85922372     0.00200
C1291       C  0.06527584  0.24234076  0.87254263    -0.08400
C1292       C  0.09235710  0.23686950  0.85135528    -0.05800
C1293       C  0.08885036  0.23421397  0.81740079     0.00200
C1294       C  0.05648844  0.23701393  0.80334510    -0.08300
C1295       C  0.05125342  0.23604841  0.76634126     0.62100
H1296       H  0.00445704  0.24436188  0.81281785     0.12800
H1297       H  0.11757807  0.23587282  0.86122659     0.12800
C1298       C  0.07528204  0.25005119  0.90816584     0.62300
F1299       F  0.01846667  0.24349590  0.75741739    -0.22900
F1300       F  0.05883205  0.20463969  0.75525934    -0.20200
F1301       F  0.07172017  0.25889795  0.75086357    -0.19900
F1302       F  0.10805964  0.24069754  0.91530768    -0.19900
F1303       F  0.05602358  0.23350228  0.93067526    -0.20200
F1304       F  0.07311446  0.28374605  0.91329447    -0.22900
C1305       C  0.22746919  0.36068919  0.88876868    -0.05700
C1306       C  0.22893138  0.32642889  0.88568050     0.00200
C1307       C  0.24080011  0.30685191  0.91246788    -0.08400
C1308       C  0.24960807  0.32255833  0.94201495    -0.05800
C1309       C  0.24514973  0.35708483  0.94691531     0.00200
C1310       C  0.23598453  0.37688868  0.91800012    -0.08300
C1311       C  0.23483710  0.41481879  0.91578453     0.62100
H1312       H  0.21897840  0.37489535  0.86743089     0.12800
H1313       H  0.25952130  0.30719465  0.96174287     0.12800
C1314       C  0.24439196  0.26946730  0.90988163     0.62300
F1315       F  0.23271772  0.42636374  0.88352731    -0.22900
F1316       F  0.26358278  0.42817200  0.92831432    -0.20200
F1317       F  0.20706013  0.42721083  0.93156082    -0.19900
F1318       F  0.26391957  0.26165399  0.88299971    -0.19900
F1319       F  0.21305729  0.25561194  0.90634193    -0.20200
F1320       F  0.25934786  0.25530605  0.93758634    -0.22900
C1321       C  0.22629012  0.18865301  0.55583532    -0.05700
C1322       C  0.25413927  0.18479464  0.57667344     0.00200
C1323       C  0.28157342  0.16608033  0.56573683    -0.08400
C1324       C  0.27940254  0.15001051  0.53534842    -0.05800
C1325       C  0.25020479  0.15018332  0.51450624     0.00200
C1326       C  0.22354809  0.17245537  0.52504874    -0.08300
C1327       C  0.19060391  0.18036050  0.50719003     0.62100
H1328       H  0.20569103  0.20403755  0.56427270     0.12800
H1329       H  0.30043334  0.13435567  0.53058132     0.12800
C1330       C  0.31257627  0.16126070  0.58743062     0.62300
F1331       F  0.18806570  0.21428625  0.50207622    -0.22900
F1332       F  0.16412031  0.17049256  0.52677806    -0.20200
F1333       F  0.18686375  0.16591790  0.47712382    -0.19900
F1334       F  0.30349889  0.14700360  0.61722856    -0.19900
F1335       F  0.32722049  0.19157013  0.59300466    -0.20200
F1336       F  0.33650338  0.14088730  0.57334058    -0.22900
C1337       C  0.47173867  0.30120959  0.59336193    -0.05700
C1338       C  0.49726150  0.27655151  0.59891217     0.00200
C1339       C  0.52982916  0.28512033  0.58576726    -0.08400
C1340       C  0.53525490  0.31774519  0.57337175    -0.05800
C1341       C  0.50982986  0.34191765  0.57158785     0.00200
C1342       C  0.47695758  0.33262315  0.57959015    -0.08300
C1343       C  0.44673435  0.35555375  0.57368203     0.62100
H1344       H  0.44694900  0.29811997  0.60218183     0.12800
H1345       H  0.56016982  0.32468581  0.56539784     0.12800
C1346       C  0.56093968  0.26298704  0.58432911     0.62300
F1347       F  0.41653272  0.33937538  0.57776994    -0.22900
F1348       F  0.44729820  0.36769626  0.54174030    -0.20200
F1349       F  0.44718087  0.38150238  0.59547706    -0.19900
F1350       F  0.55593811  0.23049482  0.59308945    -0.19900
F1351       F  0.58548659  0.27556934  0.60459846    -0.20200
F1352       F  0.57292240  0.26318306  0.55241431    -0.22900
C1353       C  0.49649763  0.20700550  0.57421663    -0.05700
C1354       C  0.48752428  0.21097661  0.60767989     0.00200
C1355       C  0.47574048  0.18160942  0.62555038    -0.08400
C1356       C  0.47613969  0.15116466  0.60957400    -0.05800
C1357       C  0.48689332  0.14804807  0.57746641     0.00200
C1358       C  0.49624725  0.17603865  0.55888468    -0.08300
C1359       C  0.50537080  0.17291040  0.52288046     0.62100
H1360       H  0.50366056  0.22832289  0.55966248     0.12800
H1361       H  0.46795654  0.12882267  0.62219845     0.12800
C1362       C  0.46216150  0.18011119  0.66099640     0.62300
F1363       F  0.51330734  0.20320900  0.50864710    -0.22900
F1364       F  0.47849040  0.16007435  0.50585167    -0.20200
F1365       F  0.53271056  0.15186481  0.51977968    -0.19900
F1366       F  0.47947502  0.19974910  0.68239058    -0.19900
F1367       F  0.46444324  0.14833467  0.67434278    -0.20200
F1368       F  0.42865232  0.18905100  0.66104786    -0.22900
C1369       C  0.44864267  0.26008066  0.67075827    -0.05700
C1370       C  0.45303498  0.25058847  0.63774149     0.00200
C1371       C  0.42261076  0.24676146  0.61795144    -0.08400
C1372       C  0.39177003  0.25608295  0.63144606    -0.05800
C1373       C  0.38851060  0.26835229  0.66301639     0.00200
C1374       C  0.41728004  0.26945876  0.68365337    -0.08300
C1375       C  0.41536909  0.28031685  0.71924227     0.62100
H1376       H  0.47032937  0.26119293  0.68658416     0.12800
H1377       H  0.36912154  0.25392280  0.61697621     0.12800
C1378       C  0.42043444  0.23423337  0.58233331     0.62300
F1379       F  0.44548547  0.27551985  0.73580054    -0.22900
F1380       F  0.39125125  0.26232972  0.73587570    -0.20200
F1381       F  0.40751550  0.31371065  0.72013267    -0.19900
F1382       F  0.42398050  0.20020127  0.58199844    -0.19900
F1383       F  0.44375493  0.24874618  0.56203802    -0.20200
F1384       F  0.38967508  0.24132820  0.56774356    -0.22900
C1385       C  0.25511887  0.82220032  0.96203479    -0.05700
C1386       C  0.25727920  0.85700636  0.96501970     0.00200
C1387       C  0.25771693  0.87621633  0.93439441    -0.08400
C1388       C  0.26178695  0.85958954  0.90466351    -0.05800
C1389       C  0.26497465  0.82536435  0.90298797     0.00200
C1390       C  0.26084392  0.80595918  0.93201244    -0.08300
C1391       C  0.26196351  0.76834929  0.93144751     0.62100
H1392       H  0.24939346  0.80742235  0.98358501     0.12800
H1393       H  0.26252158  0.87360589  0.88173303     0.12800
C1394       C  0.25128272  0.91360186  0.93020437     0.62300
F1395       F  0.25421753  0.75437346  0.96177490    -0.22900
F1396       F  0.29383691  0.75766351  0.92322972    -0.20200
F1397       F  0.23916331  0.75696981  0.90864336    -0.19900
F1398       F  0.26455459  0.92597040  0.90108293    -0.19900
F1399       F  0.26558356  0.93168266  0.95456157    -0.20200
F1400       F  0.21719065  0.91974657  0.92915600    -0.22900
C1401       C  0.29180676  0.90387051  0.04064430    -0.05700
C1402       C  0.28757096  0.89291680  0.00769039     0.00200
C1403       C  0.31621042  0.89861507  0.98618307    -0.08400
C1404       C  0.33904746  0.92278131  0.99521888    -0.05800
C1405       C  0.34508009  0.92924524  0.02815536     0.00200
C1406       C  0.32086662  0.92003428  0.05166034    -0.08300
C1407       C  0.32605274  0.92590161  0.08805106     0.62100
H1408       H  0.27309428  0.89767031  0.05868931     0.12800
H1409       H  0.35735762  0.93109410  0.97724266     0.12800
C1410       C  0.33059036  0.87773719  0.95802211     0.62300
F1411       F  0.29973310  0.91404210  0.10680101    -0.22900
F1412       F  0.32874609  0.95948504  0.09361237    -0.20200
F1413       F  0.35498270  0.90971530  0.09846700    -0.19900
F1414       F  0.32475197  0.89355186  0.92810796    -0.19900
F1415       F  0.31966885  0.84575185  0.95722438    -0.20200
F1416       F  0.36510316  0.87447744  0.96157175    -0.22900
C1417       C  0.17993014  0.93984573  0.99124809    -0.05700
C1418       C  0.15512529  0.91919758  0.97882960     0.00200
C1419       C  0.16206214  0.88546466  0.97461456    -0.08400
C1420       C  0.19361073  0.87339797  0.98373589    -0.05800
C1421       C  0.22042715  0.89347147  0.99549534     0.00200
C1422       C  0.21205454  0.92796401  0.00133166    -0.08300
C1423       C  0.23263409  0.95218908  0.02152193     0.62100
H1424       H  0.17263825  0.96540594  0.99504659     0.12800
H1425       H  0.19748983  0.84692954  0.98232998     0.12800
C1426       C  0.13649191  0.86204407  0.96002198     0.62300
F1427       F  0.21786021  0.98338936  0.02250116    -0.22900
F1428       F  0.26416100  0.95706844  0.00889334    -0.20200
F1429       F  0.23446308  0.94085910  0.05367410    -0.19900
F1430       F  0.12273681  0.87593926  0.93163270    -0.19900
F1431       F  0.11131868  0.85601175  0.98245850    -0.20200
F1432       F  0.15079092  0.83185552  0.95185436    -0.22900
C1433       C  0.22046408  0.85180976  0.05129670    -0.05700
C1434       C  0.24989678  0.84770152  0.03133087     0.00200
C1435       C  0.27544304  0.82547804  0.04568109    -0.08400
C1436       C  0.26989465  0.81106833  0.07749230    -0.05800
C1437       C  0.24093803  0.81669730  0.09584806     0.00200
C1438       C  0.21548918  0.83675562  0.08227996    -0.08300
C1439       C  0.18341100  0.84347578  0.10142976     0.62100
H1440       H  0.20088791  0.86885500  0.04445934     0.12800
H1441       H  0.28874078  0.79539209  0.08923000     0.12800
C1442       C  0.30961451  0.81688203  0.03042329     0.62300
F1443       F  0.16214613  0.86570592  0.08524522    -0.22900
F1444       F  0.19117291  0.85656864  0.13174561    -0.20200
F1445       F  0.16627867  0.81417645  0.10609796    -0.19900
F1446       F  0.32961044  0.84428303  0.02761949    -0.19900
F1447       F  0.30604054  0.80237009  0.00034125    -0.20200
F1448       F  0.32767185  0.79418811  0.04951796    -0.22900
C1449       C  0.31166009  0.92088404  0.23268058    -0.05700
C1450       C  0.33307278  0.89340945  0.23744569     0.00200
C1451       C  0.36539166  0.89838483  0.25032319    -0.08400
C1452       C  0.37421213  0.93028971  0.25945379    -0.05800
C1453       C  0.35348087  0.95930003  0.25472411     0.00200
C1454       C  0.32022739  0.95370900  0.24134900    -0.08300
C1455       C  0.29257479  0.97954037  0.23407730     0.62100
H1456       H  0.28728821  0.91615144  0.22205289     0.12800
H1457       H  0.39956279  0.93320080  0.26823232     0.12800
C1458       C  0.39154831  0.87066921  0.25380175     0.62300
F1459       F  0.26123042  0.96505955  0.23417742    -0.22900
F1460       F  0.29707318  0.99313597  0.20304224    -0.20200
F1461       F  0.29051306  0.00407644  0.25710218    -0.19900
F1462       F  0.39155774  0.85107721  0.22616224    -0.19900
F1463       F  0.38471774  0.85151517  0.28143198    -0.20200
F1464       F  0.42367985  0.88287335  0.25719157    -0.22900
C1465       C  0.16830221  0.53433773  0.27239584    -0.05700
C1466       C  0.14646190  0.53434807  0.24459401     0.00200
C1467       C  0.14165427  0.56679449  0.22817215    -0.08400
C1468       C  0.16316081  0.59256303  0.23658619    -0.05800
C1469       C  0.18133958  0.59313674  0.26580786     0.00200
C1470       C  0.18494665  0.56295262  0.28383928    -0.08300
C1471       C  0.20644497  0.56047991  0.31466407     0.62100
H1472       H  0.17094022  0.51175498  0.28654521     0.12800
H1473       H  0.16403680  0.61438252  0.22078350     0.12800
C1474       C  0.11387270  0.57907925  0.20395018     0.62300
F1475       F  0.20568622  0.52912995  0.32900216    -0.22900
F1476       F  0.19502724  0.58280315  0.33759668    -0.20200
F1477       F  0.23937742  0.56734197  0.30682162    -0.19900
F1478       F  0.08239531  0.56978275  0.21341645    -0.19900
F1479       F  0.12043151  0.56951595  0.17227877    -0.20200
F1480       F  0.11149564  0.61338567  0.20249425    -0.22900
C1481       C  0.05939705  0.71397922  0.13512458    -0.05700
C1482       C  0.03433406  0.73767586  0.14553424     0.00200
C1483       C  0.04601593  0.75942438  0.17114609    -0.08400
C1484       C  0.07770098  0.75346244  0.18656755    -0.05800
C1485       C  0.10047300  0.72937386  0.17586756     0.00200
C1486       C  0.09138696  0.70970706  0.14933577    -0.08300
C1487       C  0.11632719  0.68505159  0.13500677     0.62100
H1488       H  0.05563971  0.69935136  0.11365878     0.12800
H1489       H  0.08572904  0.76936330  0.20632515     0.12800
C1490       C  0.02907821  0.79081903  0.18290091     0.62300
F1491       F  0.10223651  0.66592826  0.11068270    -0.22900
F1492       F  0.12824863  0.66382260  0.15948910    -0.20200
F1493       F  0.14295542  0.70206370  0.12142680    -0.19900
F1494       F  0.02238089  0.78778282  0.21619190    -0.19900
F1495       F  0.99991686  0.79832429  0.16694410    -0.20200
F1496       F  0.05037898  0.81728731  0.17799523    -0.22900
C1497       C  0.98668150  0.64830268  0.09921384    -0.05700
C1498       C  0.98873716  0.64968881  0.06512419     0.00200
C1499       C  0.99740923  0.67985338  0.04931884    -0.08400
C1500       C  0.00338410  0.70800048  0.06880472    -0.05800
C1501       C  0.99859325  0.70769799  0.10346386     0.00200
C1502       C  0.99267176  0.67560719  0.11901288    -0.08300
C1503       C  0.99007236  0.66733673  0.15590148     0.62100
H1504       H  0.97988896  0.62488405  0.11076204     0.12800
H1505       H  0.00951255  0.73087443  0.05637784     0.12800
C1506       C  0.99911224  0.68261658  0.01209369     0.62300
F1507       F  0.95663444  0.66616177  0.16461220    -0.22900
F1508       F  0.00633702  0.68871795  0.17622233    -0.20200
F1509       F  0.00434806  0.63645994  0.16255913    -0.19900
F1510       F  0.96764982  0.67743456  0.99883803    -0.19900
F1511       F  0.02130683  0.65918463  0.00020455    -0.20200
F1512       F  0.00963178  0.71359545  0.00158285    -0.22900
C1513       C  0.98899034  0.83116906  0.08280617    -0.05700
C1514       C  0.02114514  0.83621248  0.07122958     0.00200
C1515       C  0.04449034  0.80990903  0.07348173    -0.08400
C1516       C  0.03427658  0.77951517  0.08775290    -0.05800
C1517       C  0.00276307  0.77477232  0.10360025     0.00200
C1518       C  0.97951186  0.80350561  0.10189004    -0.08300
C1519       C  0.94454341  0.80960794  0.11759280     0.62100
H1520       H  0.97090117  0.85070495  0.07725078     0.12800
H1521       H  0.05198439  0.75912520  0.08752119     0.12800
C1522       C  0.08006485  0.81378789  0.06121865     0.62300
F1523       F  0.93685728  0.84308385  0.11932255    -0.22900
F1524       F  0.94176697  0.79917895  0.14958594    -0.20200
F1525       F  0.91957307  0.79638076  0.09859799    -0.19900
F1526       F  0.09404511  0.84195552  0.07425186    -0.19900
F1527       F  0.07979058  0.81636818  0.02729786    -0.20200
F1528       F  0.10024666  0.78700720  0.07025771    -0.22900
C1529       C  0.26448704  0.67425389  0.54857242    -0.05700
C1530       C  0.23851857  0.65517693  0.53470169     0.00200
C1531       C  0.20602935  0.66009704  0.54999080    -0.08400
C1532       C  0.20490469  0.67113392  0.58282786    -0.05800
C1533       C  0.23299129  0.68364021  0.59870393     0.00200
C1534       C  0.26274300  0.68748539  0.58047195    -0.08300
C1535       C  0.29238856  0.70589499  0.59454360     0.62100
H1536       H  0.28722849  0.67718752  0.53509776     0.12800
H1537       H  0.18111235  0.67193983  0.59566600     0.12800
C1538       C  0.17131558  0.65944813  0.53406468     0.62300
F1539       F  0.31840734  0.70844441  0.57225007    -0.22900
F1540       F  0.30442354  0.68941323  0.62230877    -0.20200
F1541       F  0.28243230  0.73760927  0.60284423    -0.19900
F1542       F  0.15268042  0.63431345  0.54819403    -0.19900
F1543       F  0.17119259  0.65632651  0.50056229    -0.20200
F1544       F  0.15496009  0.68918323  0.54011796    -0.22900
C1545       C  0.29242796  0.60473498  0.54603172    -0.05700
C1546       C  0.27761694  0.60520274  0.51403396     0.00200
C1547       C  0.29220583  0.58213412  0.49091009    -0.08400
C1548       C  0.32378855  0.56751036  0.49828611    -0.05800
C1549       C  0.34079127  0.57293656  0.52766148     0.00200
C1550       C  0.32431705  0.59047250  0.55267589    -0.08300
C1551       C  0.34146858  0.59612904  0.58540732     0.62100
H1552       H  0.28019760  0.61714987  0.56590085     0.12800
H1553       H  0.33634898  0.55201966  0.48054870     0.12800
C1554       C  0.27565518  0.57097152  0.45895091     0.62300
F1555       F  0.32170776  0.61447738  0.60649173    -0.22900
F1556       F  0.37097711  0.61310350  0.58023554    -0.20200
F1557       F  0.34860897  0.56599220  0.60050502    -0.19900
F1558       F  0.29513058  0.54808734  0.44238715    -0.19900
F1559       F  0.27057645  0.59706107  0.43733565    -0.20200
F1560       F  0.24574589  0.55549548  0.46577411    -0.22900
C1561       C  0.20490609  0.61274479  0.46107967    -0.05700
C1562       C  0.21731985  0.61018381  0.49404747     0.00200
C1563       C  0.19914225  0.58817767  0.51566888    -0.08400
C1564       C  0.16652887  0.57836093  0.50628570    -0.05800
C1565       C  0.15304104  0.58570409  0.47515016     0.00200
C1566       C  0.17357807  0.60060631  0.45124176    -0.08300
C1567       C  0.16217113  0.60443355  0.41562929     0.62100
H1568       H  0.21949574  0.62438980  0.44224689     0.12800
H1569       H  0.15113427  0.56421799  0.52318055     0.12800
C1570       C  0.21353313  0.57287430  0.54741279     0.62300
F1571       F  0.18547242  0.62086782  0.39641343    -0.22900
F1572       F  0.13238850  0.62222964  0.41405108    -0.20200
F1573       F  0.15748806  0.57348988  0.40232274    -0.19900
F1574       F  0.22283307  0.59658195  0.56949620    -0.19900
F1575       F  0.24085218  0.55306708  0.54013177    -0.20200
F1576       F  0.19058212  0.55279436  0.56334264    -0.22900
C1577       C  0.23714398  0.67816041  0.46300356    -0.05700
C1578       C  0.26108178  0.65577628  0.47688366     0.00200
C1579       C  0.29341728  0.65619622  0.46107478    -0.08400
C1580       C  0.29478147  0.66538999  0.42759134    -0.05800
C1581       C  0.26724623  0.67935983  0.41120760     0.00200
C1582       C  0.23888947  0.68861936  0.42974259    -0.08300
C1583       C  0.21040826  0.70862416  0.41420451     0.62100
H1584       H  0.21504589  0.68402458  0.47681150     0.12800
H1585       H  0.31826923  0.66306909  0.41438167     0.12800
C1586       C  0.32795483  0.65235497  0.47684006     0.62300
F1587       F  0.18554472  0.71587312  0.43671869    -0.22900
F1588       F  0.19619612  0.69091616  0.38896800    -0.20200
F1589       F  0.22251153  0.73820167  0.40166580    -0.19900
F1590       F  0.34460420  0.62568538  0.46331476    -0.19900
F1591       F  0.32808522  0.64880174  0.51035248    -0.20200
F1592       F  0.34611747  0.68066618  0.46993149    -0.22900
C1593       C  0.56017271  0.48823882  0.18165398    -0.05700
C1594       C  0.58295954  0.49006586  0.15565914     0.00200
C1595       C  0.61737419  0.48823740  0.16302663    -0.08400
C1596       C  0.62758313  0.48962742  0.19600147    -0.05800
C1597       C  0.60563734  0.49073606  0.22317502     0.00200
C1598       C  0.57068633  0.48465267  0.21498592    -0.08300
C1599       C  0.54538399  0.46732949  0.23755020     0.62100
H1600       H  0.53375655  0.48738814  0.17542698     0.12800
H1601       H  0.65352939  0.48574984  0.20038884     0.12800
C1602       C  0.64464292  0.48263775  0.13762487     0.62300
F1603       F  0.52043992  0.45217210  0.21953271    -0.22900
F1604       F  0.52955777  0.48939908  0.25792824    -0.20200
F1605       F  0.56053101  0.44229426  0.25583501    -0.19900
F1606       F  0.66619606  0.50921010  0.13760465    -0.19900
F1607       F  0.63257068  0.47865854  0.10605640    -0.20200
F1608       F  0.66256062  0.45419364  0.14609933    -0.22900
C1609       C  0.59003700  0.46964194  0.30955689    -0.05700
C1610       C  0.59468631  0.49560659  0.28607553     0.00200
C1611       C  0.57464864  0.52534046  0.29105398    -0.08400
C1612       C  0.55943051  0.53009407  0.32203290    -0.05800
C1613       C  0.56105822  0.50600323  0.34716503     0.00200
C1614       C  0.57285089  0.47395705  0.33919964    -0.08300
C1615       C  0.56640071  0.44377240  0.36112146     0.62100
H1616       H  0.60052289  0.44537496  0.30547223     0.12800
H1617       H  0.54718055  0.55357790  0.32705593     0.12800
C1618       C  0.56917316  0.55399343  0.26646629     0.62300
F1619       F  0.57092273  0.41447340  0.34432037    -0.22900
F1620       F  0.53361513  0.44447297  0.37197951    -0.20200
F1621       F  0.58803648  0.44325730  0.38777198    -0.19900
F1622       F  0.53551547  0.55597060  0.25834501    -0.19900
F1623       F  0.58702335  0.55144498  0.23774125    -0.20200
F1624       F  0.57792055  0.58351960  0.28083334    -0.22900
C1625       C  0.63264205  0.42972611  0.24670281    -0.05700
C1626       C  0.64306195  0.45768202  0.26496192     0.00200
C1627       C  0.66724282  0.45056753  0.29099148    -0.08400
C1628       C  0.68074871  0.41799018  0.29445785    -0.05800
C1629       C  0.66956329  0.39107963  0.27612861     0.00200
C1630       C  0.64375721  0.39703311  0.25253949    -0.08300
C1631       C  0.62675797  0.36936870  0.23353072     0.62100
H1632       H  0.61397428  0.43262400  0.22788095     0.12800
H1633       H  0.70019161  0.41293213  0.31249761     0.12800
C1634       C  0.67946472  0.47555888  0.31614614     0.62300
F1635       F  0.59987126  0.38069081  0.21465804    -0.22900
F1636       F  0.61429289  0.34592029  0.25535475    -0.20200
F1637       F  0.64939319  0.35479163  0.21236012    -0.19900
F1638       F  0.65286621  0.48835560  0.33341343    -0.19900
F1639       F  0.69726678  0.50055669  0.30104273    -0.20200
F1640       F  0.70082334  0.46128356  0.33944178    -0.22900
C1641       C  0.73643360  0.32790344  0.46129374    -0.05700
C1642       C  0.76362146  0.34835673  0.47112142     0.00200
C1643       C  0.79382906  0.34575475  0.45019528    -0.08400
C1644       C  0.79418906  0.32215130  0.42484583    -0.05800
C1645       C  0.76564591  0.30698164  0.41348187     0.00200
C1646       C  0.73604746  0.30958243  0.43191746    -0.08300
C1647       C  0.70431822  0.29254288  0.42075903     0.62100
H1648       H  0.71401182  0.32769094  0.47593380     0.12800
H1649       H  0.81676447  0.31732541  0.41090832     0.12800
C1650       C  0.82668123  0.36590170  0.45015213     0.62300
F1651       F  0.67853055  0.29607746  0.44316070    -0.22900
F1652       F  0.71068727  0.25905942  0.41700893    -0.20200
F1653       F  0.69358192  0.30603151  0.39100256    -0.19900
F1654       F  0.84878450  0.35339845  0.47343226    -0.19900
F1655       F  0.82179860  0.39924904  0.45369347    -0.20200
F1656       F  0.84345361  0.36399248  0.42038361    -0.22900
C1657       C  0.68982101  0.37812682  0.50731324    -0.05700
C1658       C  0.71880629  0.39046088  0.49050249     0.00200
C1659       C  0.71046716  0.41339164  0.46393267    -0.08400
C1660       C  0.67758290  0.42753458  0.46166055    -0.05800
C1661       C  0.65075782  0.41743127  0.48178883     0.00200
C1662       C  0.65716123  0.39114482  0.50463548    -0.08300
C1663       C  0.63007599  0.37576524  0.52652417     0.62100
H1664       H  0.69189382  0.35619116  0.52239081     0.12800
H1665       H  0.67246737  0.44600282  0.44256661     0.12800
C1666       C  0.73281120  0.42284558  0.43531862     0.62300
F1667       F  0.64240984  0.35096674  0.54736921    -0.22900
F1668       F  0.60565507  0.36163551  0.50714071    -0.20200
F1669       F  0.61602389  0.39971547  0.54634579    -0.19900
F1670       F  0.76341082  0.40754160  0.43634735    -0.19900
F1671       F  0.73749510  0.45677714  0.43466717    -0.20200
F1672       F  0.71740249  0.41397376  0.40622398    -0.22900
C1673       C  0.78435064  0.43095676  0.49939383    -0.05700
C1674       C  0.78577769  0.39654852  0.50734909     0.00200
C1675       C  0.81677456  0.38436554  0.52265828    -0.08400
C1676       C  0.84470089  0.40537106  0.52357698    -0.05800
C1677       C  0.84378049  0.43767653  0.51137193     0.00200
C1678       C  0.81281309  0.45159807  0.50094297    -0.08300
C1679       C  0.81025312  0.48772758  0.49030487     0.62100
H1680       H  0.76105620  0.44189127  0.49139316     0.12800
H1681       H  0.86839060  0.39655424  0.53365612     0.12800
C1682       C  0.82269319  0.34966441  0.53802248     0.62300
F1683       F  0.77820941  0.49638123  0.47993981    -0.22900
F1684       F  0.83204695  0.49376037  0.46456649    -0.20200
F1685       F  0.81848767  0.50767150  0.51641791    -0.19900
F1686       F  0.85643147  0.34260221  0.54288645    -0.19900
F1687       F  0.81087610  0.32500253  0.51814295    -0.20200
F1688       F  0.80796798  0.34770605  0.56865876    -0.22900
C1689       C  0.33896418  0.55143683  0.76649161    -0.05700
C1690       C  0.35936437  0.53781664  0.74128753     0.00200
C1691       C  0.36474892  0.55987643  0.71273679    -0.08400
C1692       C  0.34549931  0.58941787  0.70988504    -0.05800
C1693       C  0.32731035  0.60215242  0.73584541     0.00200
C1694       C  0.32421560  0.58324339  0.76491493    -0.08300
C1695       C  0.30448941  0.59636355  0.79392092     0.62100
H1696       H  0.33419016  0.53681282  0.78825521     0.12800
H1697       H  0.34678662  0.60466537  0.68768051     0.12800
C1698       C  0.39055353  0.55770678  0.68490598     0.62300
F1699       F  0.30236404  0.57325510  0.81936118    -0.22900
F1700       F  0.27226339  0.60465727  0.78392199    -0.20200
F1701       F  0.31992953  0.62419795  0.80600953    -0.19900
F1702       F  0.37566845  0.54446441  0.65747686    -0.19900
F1703       F  0.41917574  0.54050939  0.69278320    -0.20200
F1704       F  0.40171211  0.58904610  0.67602700    -0.22900
C1705       C  0.36457172  0.44171943  0.76375294    -0.05700
C1706       C  0.34885707  0.47198931  0.75326649    -0.11800
C1707       C  0.31358114  0.46971496  0.74448310    -0.08400
C1708       C  0.29820929  0.43792129  0.74556511    -0.05800
C1709       C  0.31533511  0.40886896  0.75525292     0.00200
C1710       C  0.34870383  0.41106033  0.76586693    -0.08300
C1711       C  0.36739869  0.38128329  0.78073969     0.62100
H1712       H  0.39043245  0.44216533  0.77067757     0.12800
H1713       H  0.27211623  0.43516001  0.73888147     0.12800
C1714       C  0.29024859  0.49869377  0.73505625     0.62300
F1715       F  0.39869042  0.38960667  0.79273032    -0.22900
F1716       F  0.37199323  0.35729767  0.75731384    -0.20200
F1717       F  0.34914146  0.36821687  0.80665233    -0.19900
F1718       F  0.30365544  0.51891859  0.71100929    -0.19900
F1719       F  0.28261835  0.51658337  0.76271405    -0.20200
F1720       F  0.25998899  0.48797902  0.72247248    -0.22900
C1721       C  0.37407564  0.49477318  0.81330038    -0.05700
C1722       C  0.39217045  0.50705359  0.78542212     0.00200
C1723       C  0.42020547  0.52807538  0.79368250    -0.08400
C1724       C  0.43199131  0.52850957  0.82693230    -0.05800
C1725       C  0.41433458  0.51390684  0.85310315     0.00200
C1726       C  0.38308155  0.49977109  0.84609624    -0.08300
C1727       C  0.35653776  0.49149989  0.87171367     0.62100
H1728       H  0.34984654  0.48357237  0.81033550     0.12800
H1729       H  0.45502879  0.54096297  0.83305661     0.12800
C1730       C  0.43747938  0.55148564  0.76952156     0.62300
F1731       F  0.32696613  0.50781656  0.86324316    -0.22900
F1732       F  0.36473235  0.50103174  0.90319915    -0.20200
F1733       F  0.35077761  0.45779517  0.87178593    -0.19900
F1734       F  0.41511150  0.57511431  0.75781186    -0.19900
F1735       F  0.45115641  0.53454375  0.74389330    -0.20200
F1736       F  0.46350137  0.56843385  0.78407784    -0.22900
C1737       C  0.37676999  0.48372013  0.69119433    -0.05700
C1738       C  0.39633074  0.48803852  0.72020694     0.00200
C1739       C  0.43050935  0.47549637  0.71814567    -0.08400
C1740       C  0.44450304  0.47116521  0.68628074    -0.05800
C1741       C  0.42483097  0.47258870  0.65754261     0.00200
C1742       C  0.38988943  0.47402430  0.66102090    -0.08300
C1743       C  0.36606411  0.46522739  0.63325421     0.62100
H1744       H  0.35033625  0.48909028  0.69163199     0.12800
H1745       H  0.47105379  0.46577726  0.68388510     0.12800
C1746       C  0.45360012  0.46291734  0.74584695     0.62300
F1747       F  0.33489400  0.45662149  0.64535464    -0.22900
F1748       F  0.37848615  0.43827524  0.61632181    -0.20200
F1749       F  0.36190796  0.49185614  0.61177187    -0.19900
F1750       F  0.44138463  0.46578879  0.77709239    -0.19900
F1751       F  0.48390809  0.47922293  0.74445362    -0.20200
F1752       F  0.45990073  0.42954462  0.74106998    -0.22900
C1753       C  0.74769216  0.17754071  0.03719898    -0.05700
C1754       C  0.74464737  0.14246170  0.03881364     0.00200
C1755       C  0.73515081  0.12819646  0.07058987    -0.08400
C1756       C  0.72732026  0.14932522  0.09644457    -0.05800
C1757       C  0.73516820  0.18268356  0.09560962     0.00200
C1758       C  0.74504888  0.19753525  0.06551856    -0.08300
C1759       C  0.75364807  0.23395685  0.06364939     0.62100
H1760       H  0.75397594  0.18938623  0.01419491     0.12800
H1761       H  0.71840067  0.13886846  0.11955738     0.12800
C1762       C  0.73502102  0.09156669  0.08147493     0.62300
F1763       F  0.76406055  0.24346605  0.03246650    -0.22900
F1764       F  0.77926290  0.24042811  0.08559128    -0.20200
F1765       F  0.72576676  0.25275886  0.07158582    -0.19900
F1766       F  0.74763571  0.08816407  0.11322992    -0.19900
F1767       F  0.75473877  0.07103755  0.06313574    -0.20200
F1768       F  0.70245059  0.08020310  0.08155303    -0.22900
C1769       C  0.71057763  0.06813381  0.01117740    -0.05700
C1770       C  0.71405563  0.10296710  0.00706609     0.00200
C1771       C  0.68312371  0.12202562  0.00159522    -0.08400
C1772       C  0.65304518  0.10516262  0.99668480    -0.05800
C1773       C  0.65085923  0.07099371  0.99813257     0.00200
C1774       C  0.67948220  0.05197004  0.00717126    -0.08300
C1775       C  0.67691935  0.01491582  0.01345616     0.62100
H1776       H  0.73259908  0.05289019  0.01488100     0.12800
H1777       H  0.63000770  0.11877304  0.99169685     0.12800
C1778       C  0.67898857  0.15996967  0.00258888     0.62300
F1779       F  0.70671569  0.00141154  0.02532509    -0.22900
F1780       F  0.66883013  0.99909149  0.98462225    -0.20200
F1781       F  0.65231074  0.00884725  0.03661674    -0.19900
F1782       F  0.70268304  0.17644191  0.98435150    -0.19900
F1783       F  0.67980137  0.17003301  0.03487746    -0.20200
F1784       F  0.64842352  0.17079686  0.98990393    -0.22900
C1785       C  0.83746167  0.08533550  0.04207372    -0.05700
C1786       C  0.84394949  0.06038213  0.02020869     0.00200
C1787       C  0.82078001  0.05399053  0.99515416    -0.08400
C1788       C  0.79115931  0.07338190  0.99302667    -0.05800
C1789       C  0.78391689  0.10021359  0.01408840     0.00200
C1790       C  0.81093068  0.10817795  0.03751072    -0.08300
C1791       C  0.81724312  0.14064812  0.05614625     0.62100
H1792       H  0.85590391  0.08856959  0.06137763     0.12800
H1793       H  0.77465901  0.06854703  0.97349091     0.12800
C1794       C  0.82764097  0.02677325  0.97070110     0.62300
F1795       F  0.79821852  0.14239349  0.08418688    -0.22900
F1796       F  0.81247292  0.16817267  0.03641049    -0.20200
F1797       F  0.85019029  0.14319196  0.06678301    -0.19900
F1798       F  0.83397358  0.99720969  0.98742217    -0.19900
F1799       F  0.85531804  0.03487677  0.95197190    -0.20200
F1800       F  0.80075223  0.02212273  0.94970504    -0.22900
C1801       C  0.13903060  0.91116397  0.77427967    -0.05700
C1802       C  0.17344278  0.90910290  0.76939506     0.00200
C1803       C  0.19108411  0.93834866  0.76132680    -0.08400
C1804       C  0.17280236  0.96809018  0.75522385    -0.05800
C1805       C  0.13719793  0.96982791  0.75584899     0.00200
C1806       C  0.12039068  0.94058633  0.76891746    -0.08300
C1807       C  0.08352972  0.93846681  0.77921316     0.62100
H1808       H  0.12668511  0.88890022  0.78293676     0.12800
H1809       H  0.18674119  0.99012012  0.74936724     0.12800
C1810       C  0.22901697  0.93811354  0.75856564     0.62300
F1811       F  0.07192426  0.90623428  0.77828325    -0.22900
F1812       F  0.06285758  0.95674530  0.75873912    -0.20200
F1813       F  0.07993877  0.94888702  0.81118227    -0.19900
F1814       F  0.23909021  0.91488160  0.73588279    -0.19900
F1815       F  0.24311050  0.93031370  0.78889025    -0.20200
F1816       F  0.24120855  0.96863032  0.74851871    -0.22900
C1817       C  0.14388471  0.06177371  0.76399722    -0.05700
C1818       C  0.14376693  0.03508020  0.74119132     0.00200
C1819       C  0.16072212  0.04279148  0.71039987    -0.08400
C1820       C  0.17046966  0.07584500  0.70300540    -0.05800
C1821       C  0.16801498  0.10151380  0.72562625     0.00200
C1822       C  0.15734508  0.09324788  0.75779106    -0.08300
C1823       C  0.15977569  0.11728324  0.78629339     0.62100
H1824       H  0.13126094  0.06034860  0.78698111     0.12800
H1825       H  0.18035727  0.08169344  0.67879681     0.12800
C1826       C  0.16804116  0.01912791  0.68263130     0.62300
F1827       F  0.15550372  0.10157522  0.81653541    -0.22900
F1828       F  0.13538302  0.14172651  0.78319139    -0.20200
F1829       F  0.19116708  0.13137097  0.78677028    -0.19900
F1830       F  0.14756063  0.02678701  0.65598090    -0.19900
F1831       F  0.16392133  0.98666752  0.69118216    -0.20200
F1832       F  0.20106692  0.02248678  0.67290888    -0.22900
C1833       C  0.08561776  0.03319367  0.70191311    -0.05700
C1834       C  0.09761113  0.00174840  0.71381777     0.00200
C1835       C  0.09396329  0.97413334  0.69079397    -0.08400
C1836       C  0.07765019  0.98068293  0.66041561    -0.05800
C1837       C  0.06849396  0.01220394  0.64911553     0.00200
C1838       C  0.07169226  0.03906470  0.67051026    -0.08300
C1839       C  0.06079095  0.07405903  0.66053976     0.62100
H1840       H  0.08963936  0.05458864  0.71689450     0.12800
H1841       H  0.07289101  0.96074317  0.64365942     0.12800
C1842       C  0.10580345  0.93740655  0.69400144     0.62300
F1843       F  0.06021001  0.09514437  0.68709279    -0.22900
F1844       F  0.02882378  0.07371958  0.64723200    -0.20200
F1845       F  0.08286721  0.08687980  0.63762538    -0.19900
F1846       F  0.08501590  0.91984015  0.71452855    -0.19900
F1847       F  0.13861631  0.93358003  0.70364194    -0.20200
F1848       F  0.10460683  0.92101149  0.66429783    -0.22900
C1849       C  0.05234771  0.02132953  0.81977272    -0.05700
C1850       C  0.07344018  0.01619727  0.84711406     0.00200
C1851       C  0.10784129  0.01038601  0.84175237    -0.08400
C1852       C  0.11907260  0.00752859  0.80939259    -0.05800
C1853       C  0.09838216  0.01101859  0.78057529     0.00200
C1854       C  0.06338382  0.01955025  0.78657414    -0.08300
C1855       C  0.03660174  0.02913731  0.76080456     0.62100
H1856       H  0.02640315  0.02700100  0.82506358     0.12800
H1857       H  0.14560797  0.00323373  0.80611962     0.12800
C1858       C  0.13330931  0.00737257  0.86975977     0.62300
F1859       F  0.04286586  0.06048602  0.74846264    -0.22900
F1860       F  0.00475552  0.03059077  0.77420814    -0.20200
F1861       F  0.03435729  0.00664435  0.73581401    -0.19900
F1862       F  0.12910596  0.97765490  0.88657557    -0.19900
F1863       F  0.12934870  0.03350739  0.89108400    -0.20200
F1864       F  0.16603011  0.00803989  0.85855032    -0.22900
C1865       C  0.42340036  0.78813408  0.34752451    -0.05700
C1866       C  0.41005749  0.76049399  0.33229366     0.00200
C1867       C  0.43074362  0.73234721  0.32832697    -0.08400
C1868       C  0.46329843  0.73211002  0.34207488    -0.05800
C1869       C  0.47539895  0.75762736  0.36253777     0.00200
C1870       C  0.45658120  0.78855742  0.35994259    -0.08300
C1871       C  0.46951425  0.82378003  0.36345248     0.62100
H1872       H  0.40833415  0.81069698  0.34755917     0.12800
H1873       H  0.47868414  0.71056806  0.33871899     0.12800
C1874       C  0.41809623  0.70235609  0.31015690     0.62300
F1875       F  0.46216172  0.84169605  0.33491205    -0.22900
F1876       F  0.50343407  0.82608921  0.36771324    -0.20200
F1877       F  0.45323733  0.83911861  0.38906902    -0.19900
F1878       F  0.40946961  0.71143656  0.27825473    -0.19900
F1879       F  0.39021027  0.68986461  0.32597478    -0.20200
F1880       F  0.44201203  0.67730497  0.30888710    -0.22900
C1881       C  0.46214054  0.70589936  0.40974488    -0.05700
C1882       C  0.49595242  0.71714119  0.41012746     0.00200
C1883       C  0.51812027  0.69798144  0.43154909    -0.08400
C1884       C  0.50938663  0.66511311  0.43988904    -0.05800
C1885       C  0.47801610  0.65219408  0.43284948     0.00200
C1886       C  0.45311699  0.67347738  0.41953216    -0.08300
C1887       C  0.41762699  0.66147912  0.41452455     0.62100
H1888       H  0.44242711  0.72215852  0.40075178     0.12800
H1889       H  0.52728148  0.64916118  0.45284966     0.12800
C1890       C  0.54997592  0.70968135  0.44823757     0.62300
F1891       F  0.39731679  0.68535430  0.39952431    -0.22900
F1892       F  0.40389251  0.65334551  0.44464678    -0.20200
F1893       F  0.41795489  0.63375610  0.39493235    -0.19900
F1894       F  0.54904542  0.74284831  0.45490974    -0.19900
F1895       F  0.57757633  0.70166255  0.42957892    -0.20200
F1896       F  0.55403578  0.69399651  0.47862893    -0.22900
C1897       C  0.48776626  0.78741934  0.43079920    -0.05700
C1898       C  0.51458249  0.77717811  0.41037676     0.00200
C1899       C  0.54517475  0.79643915  0.41322427    -0.08400
C1900       C  0.54319771  0.82822298  0.42687957    -0.05800
C1901       C  0.51452267  0.83984350  0.44227661     0.00200
C1902       C  0.48752500  0.81793766  0.44726359    -0.08300
C1903       C  0.45823818  0.82689539  0.46929636     0.62100
H1904       H  0.46548308  0.77242050  0.43185912     0.12800
H1905       H  0.56477727  0.84437487  0.42566105     0.12800
C1906       C  0.58133776  0.78657994  0.40615731     0.62300
F1907       F  0.43784965  0.79992093  0.47526836    -0.22900
F1908       F  0.43883822  0.85170255  0.45481032    -0.20200
F1909       F  0.47017245  0.83764620  0.49925810    -0.19900
F1910       F  0.59331044  0.80561693  0.38031635    -0.19900
F1911       F  0.58605176  0.75387532  0.39976351    -0.20200
F1912       F  0.60096778  0.79284421  0.43353545    -0.22900
C1913       C  0.79219722  0.57480861  0.00273171    -0.05700
C1914       C  0.78646964  0.60905752  0.99686783     0.00200
C1915       C  0.81433734  0.62793167  0.98384978    -0.08400
C1916       C  0.84298905  0.61126409  0.97304866    -0.05800
C1917       C  0.84740178  0.57743909  0.97764995     0.00200
C1918       C  0.82206869  0.55867962  0.99320658    -0.08300
C1919       C  0.82698366  0.52195997  0.00059162     0.62100
H1920       H  0.77314079  0.56033381  0.01478482     0.12800
H1921       H  0.86322084  0.62523039  0.96188107     0.12800
C1922       C  0.81670328  0.66548718  0.98055017     0.62300
F1923       F  0.79920587  0.50816065  0.01556836    -0.22900
F1924       F  0.85409619  0.51744844  0.02150318    -0.20200
F1925       F  0.83271552  0.50515385  0.97174253    -0.19900
F1926       F  0.84793499  0.67569294  0.99116817    -0.19900
F1927       F  0.79386114  0.68209544  0.99917345    -0.20200
F1928       F  0.81275684  0.67496353  0.94789883    -0.22900
C1929       C  0.71091629  0.58550673  0.03595160    -0.05700
C1930       C  0.72239965  0.59596230  0.00453519     0.00200
C1931       C  0.70115491  0.58608580  0.97820353    -0.08400
C1932       C  0.66655347  0.58671062  0.98330478    -0.05800
C1933       C  0.65344735  0.58039772  0.01476777     0.00200
C1934       C  0.67686489  0.57681155  0.04142540    -0.08300
C1935       C  0.66628785  0.56556988  0.07552907     0.62100
H1936       H  0.72798709  0.58687988  0.05661976     0.12800
H1937       H  0.65048119  0.58412942  0.96193139     0.12800
C1938       C  0.71160168  0.55913290  0.95430415     0.62300
F1939       F  0.69271992  0.56573510  0.09771989    -0.22900
F1940       F  0.65461501  0.53354920  0.07408252    -0.20200
F1941       F  0.64136673  0.58626954  0.08724183    -0.19900
F1942       F  0.74410987  0.54813812  0.95940091    -0.19900
F1943       F  0.70760334  0.57066766  0.92233123    -0.20200
F1944       F  0.69142861  0.53157908  0.95826982    -0.22900
C1945       C  0.72279206  0.66504042  0.08588435    -0.05700
C1946       C  0.75265976  0.66277308  0.10422160     0.00200
C1947       C  0.78198424  0.65201391  0.08832244    -0.08400
C1948       C  0.78015745  0.64347426  0.05502083    -0.05800
C1949       C  0.75008319  0.64391350  0.03550877     0.00200
C1950       C  0.72062448  0.65632698  0.05226985    -0.08300
C1951       C  0.68611938  0.66222051  0.03694171     0.62100
H1952       H  0.70045807  0.67408240  0.09811025     0.12800
H1953       H  0.80360936  0.63582920  0.04487696     0.12800
C1954       C  0.81533557  0.64804434  0.10662585     0.62300
F1955       F  0.66243996  0.64434757  0.05416941    -0.22900
F1956       F  0.68425358  0.65389469  0.00431759    -0.20200
F1957       F  0.67759231  0.69541408  0.03940270    -0.19900
F1958       F  0.81088500  0.62985824  0.13541034    -0.19900
F1959       F  0.82786954  0.67889903  0.11392295    -0.20200
F1960       F  0.83932139  0.63159260  0.08832288    -0.22900
C1961       C  0.83822474  0.90950378  0.22145801    -0.05700
C1962       C  0.83462189  0.89448788  0.25276688     0.00200
C1963       C  0.84029040  0.91450817  0.28047486    -0.08400
C1964       C  0.85167452  0.94725535  0.27573134    -0.05800
C1965       C  0.85750873  0.96280172  0.24437815     0.00200
C1966       C  0.84821847  0.94291501  0.21649747    -0.08300
C1967       C  0.84651874  0.95491170  0.18080176     0.62100
H1968       H  0.83233608  0.89495613  0.20002794     0.12800
H1969       H  0.85615662  0.96049263  0.29786754     0.12800
C1970       C  0.83483977  0.90162631  0.31543692     0.62300
F1971       F  0.86712305  0.93546605  0.16167349    -0.22900
F1972       F  0.85530935  0.98754314  0.17636946    -0.20200
F1973       F  0.81407946  0.95146335  0.16929070    -0.19900
F1974       F  0.85382779  0.87321383  0.32106400    -0.19900
F1975       F  0.80131179  0.89483725  0.31970223    -0.20200
F1976       F  0.84370203  0.92434344  0.33906128    -0.22900
C1977       C  0.54601652  0.76487969  0.34112804    -0.05700
C1978       C  0.53541858  0.73882732  0.36227278     0.00200
C1979       C  0.55360345  0.70786535  0.35880472    -0.08400
C1980       C  0.58674006  0.70918944  0.34690747    -0.05800
C1981       C  0.59974156  0.73805768  0.33263419     0.00200
C1982       C  0.57759618  0.76482057  0.32582916    -0.08300
C1983       C  0.58699409  0.79298659  0.30248247     0.62100
H1984       H  0.53022059  0.78636088  0.33792668     0.12800
H1985       H  0.60233506  0.68699383  0.34782518     0.12800
C1986       C  0.54038902  0.67256399  0.36166151     0.62300
F1987       F  0.56016540  0.81428858  0.29638591    -0.22900
F1988       F  0.59709735  0.78008121  0.27275465    -0.20200
F1989       F  0.61275095  0.81130992  0.31552474    -0.19900
F1990       F  0.54672224  0.65646601  0.33245220    -0.19900
F1991       F  0.50655944  0.67026482  0.36670285    -0.20200
F1992       F  0.55720274  0.65539300  0.38648900    -0.22900
C1993       C  0.67698496  0.56849750  0.23306285    -0.05700
C1994       C  0.66750891  0.59170133  0.25687292     0.00200
C1995       C  0.65340860  0.57892548  0.28664570    -0.08400
C1996       C  0.64378954  0.54548235  0.28794908    -0.05800
C1997       C  0.64723795  0.52335173  0.26131413     0.00200
C1998       C  0.67185418  0.53407090  0.23783266    -0.08300
C1999       C  0.70148706  0.51294463  0.22668673     0.62100
H2000       H  0.69289736  0.57660662  0.21299811     0.12800
H2001       H  0.63239808  0.53695528  0.31029386     0.12800
C2002       C  0.64805956  0.59961065  0.31744110     0.62300
F2003       F  0.69894293  0.47987161  0.23505217    -0.22900
F2004       F  0.73036003  0.52441494  0.24149669    -0.20200
F2005       F  0.70536327  0.51598341  0.19298117    -0.19900
F2006       F  0.62488550  0.62468320  0.31112252    -0.19900
F2007       F  0.67819348  0.61291560  0.32741884    -0.20200
F2008       F  0.63604458  0.58104937  0.34373704    -0.22900
C2009       C  0.90295439  0.73390586  0.13919433    -0.05700
C2010       C  0.90041351  0.74100403  0.17226171     0.00200
C2011       C  0.92988478  0.74379974  0.19136936    -0.08400
C2012       C  0.96141999  0.74110914  0.17563972    -0.05800
C2013       C  0.96447456  0.73895637  0.14093554     0.00200
C2014       C  0.93342325  0.73425602  0.12236874    -0.08300
C2015       C  0.92936396  0.72988864  0.08494926     0.62100
H2016       H  0.87983857  0.72943354  0.12595738     0.12800
H2017       H  0.98370499  0.74255227  0.19047013     0.12800
C2018       C  0.92794515  0.75002327  0.22797759     0.62300
F2019       F  0.89769158  0.73947655  0.07399576    -0.22900
F2020       F  0.93295926  0.69689093  0.07732760    -0.20200
F2021       F  0.95114879  0.74902774  0.06688615    -0.19900
F2022       F  0.90819173  0.72627880  0.24299614    -0.19900
F2023       F  0.91409271  0.78106273  0.23308569    -0.20200
F2024       F  0.95926544  0.74886429  0.24275786    -0.22900
C2025       C  0.81543151  0.87594645  0.47686253    -0.05700
C2026       C  0.78654175  0.89041817  0.49200905     0.00200
C2027       C  0.78677276  0.92637445  0.49254303    -0.08400
C2028       C  0.81808782  0.94267461  0.48898333    -0.05800
C2029       C  0.84710851  0.92602862  0.47869136     0.00200
C2030       C  0.84478471  0.89302367  0.46931587    -0.08300
C2031       C  0.87404640  0.87535312  0.45302412     0.62100
H2032       H  0.81628753  0.84981082  0.47254172     0.12800
H2033       H  0.81997329  0.96887892  0.49411097     0.12800
C2034       C  0.75666869  0.94978542  0.49433357     0.62300
F2035       F  0.86593165  0.84356318  0.44366439    -0.22900
F2036       F  0.90100942  0.87321524  0.47447158    -0.20200
F2037       F  0.88335707  0.89293111  0.42507985    -0.19900
F2038       F  0.75122587  0.95879503  0.52652599    -0.19900
F2039       F  0.72813264  0.93684828  0.48070191    -0.20200
F2040       F  0.76277822  0.97855865  0.47635772    -0.22900
C2041       C  0.71683163  0.90003937  0.53655693    -0.05700
C2042       C  0.72151314  0.87790873  0.51011113     0.00200
C2043       C  0.69064281  0.86708186  0.49468631    -0.08400
C2044       C  0.66231279  0.88737083  0.49673563    -0.05800
C2045       C  0.65807372  0.91106177  0.52111447     0.00200
C2046       C  0.68559269  0.91631614  0.54277801    -0.08300
C2047       C  0.68253892  0.93927055  0.57169888     0.62100
H2048       H  0.73827878  0.90495770  0.55202724     0.12800
H2049       H  0.64135317  0.88145540  0.48089020     0.12800
C2050       C  0.68191691  0.83374523  0.47889067     0.62300
F2051       F  0.71212308  0.94090208  0.58949794    -0.22900
F2052       F  0.65787652  0.92786810  0.59271099    -0.20200
F2053       F  0.67443064  0.97090563  0.56049850    -0.19900
F2054       F  0.65177339  0.82256540  0.49156344    -0.19900
F2055       F  0.70409163  0.80825482  0.48476383    -0.20200
F2056       F  0.67769069  0.83812050  0.44530963    -0.22900
C2057       C  0.74365760  0.86528750  0.44250154    -0.05700
C2058       C  0.75507039  0.84461251  0.46912369     0.00200
C2059       C  0.76598731  0.81151770  0.46087052    -0.08400
C2060       C  0.76272842  0.80140809  0.42753992    -0.05800
C2061       C  0.75033488  0.82267435  0.40245374     0.00200
C2062       C  0.74085297  0.85510797  0.41002426    -0.08300
C2063       C  0.72774092  0.87912190  0.38366718     0.62100
H2064       H  0.73685280  0.89055444  0.44746322     0.12800
H2065       H  0.77017427  0.77665147  0.42049051     0.12800
C2066       C  0.78066481  0.78629663  0.48552675     0.62300
F2067       F  0.71861480  0.90952213  0.39639311    -0.22900
F2068       F  0.69992087  0.86595524  0.36849070    -0.20200
F2069       F  0.75228349  0.88452653  0.36046818    -0.19900
F2070       F  0.80669361  0.79952006  0.50312219    -0.19900
F2071       F  0.79342705  0.75863069  0.46997775    -0.20200
F2072       F  0.75632011  0.77533773  0.50692214    -0.22900
C2073       C  0.87789114  0.50340675  0.67411983    -0.05700
C2074       C  0.89672167  0.50776714  0.70364566     0.00200
C2075       C  0.93140580  0.51753546  0.69833504    -0.08400
C2076       C  0.94109865  0.52844083  0.66632567    -0.05800
C2077       C  0.92035167  0.52651277  0.63856053     0.00200
C2078       C  0.88765205  0.51433916  0.64281487    -0.08300
C2079       C  0.86194508  0.51363000  0.61497197     0.62100
H2080       H  0.85320549  0.49278075  0.67576719     0.12800
H2081       H  0.96661657  0.53664161  0.66242820     0.12800
C2082       C  0.96193808  0.51520739  0.72129719     0.62300
F2083       F  0.82958145  0.51014759  0.62663714    -0.22900
F2084       F  0.86868216  0.48717759  0.59476639    -0.20200
F2085       F  0.86266054  0.54299178  0.59691335    -0.19900
F2086       F  0.95739671  0.50046836  0.75137400    -0.19900
F2087       F  0.97446081  0.54661588  0.72590621    -0.20200
F2088       F  0.98665123  0.49657422  0.70616333    -0.22900
C2089       C  0.89772030  0.46670318  0.78732352    -0.05700
C2090       C  0.89610225  0.49787162  0.77009398     0.00200
C2091       C  0.91004656  0.52560917  0.78769908    -0.08400
C2092       C  0.92262600  0.52046554  0.82008503    -0.05800
C2093       C  0.92407771  0.48912542  0.83534845     0.00200
C2094       C  0.91195666  0.46169568  0.81849485    -0.08300
C2095       C  0.91280116  0.42698542  0.83388756     0.62100
H2096       H  0.88665529  0.44511675  0.77755374     0.12800
H2097       H  0.93233033  0.54133606  0.83352551     0.12800
C2098       C  0.91390999  0.56106492  0.77482105     0.62300
F2099       F  0.89648171  0.40401607  0.81480977    -0.22900
F2100       F  0.89751747  0.42723316  0.86436815    -0.20200
F2101       F  0.94562227  0.41639773  0.83743097    -0.19900
F2102       F  0.90530823  0.56557319  0.74224683    -0.19900
F2103       F  0.94695858  0.57045045  0.77831600    -0.20200
F2104       F  0.89469133  0.58222552  0.79356454    -0.22900
C2105       C  0.85939959  0.40484000  0.72184012    -0.05700
C2106       C  0.82616001  0.40207199  0.73107309     0.00200
C2107       C  0.80691839  0.43104785  0.73596473    -0.08400
C2108       C  0.82280460  0.46223238  0.73426137    -0.05800
C2109       C  0.85794362  0.46550709  0.72970898     0.00200
C2110       C  0.87594749  0.43548608  0.72004363    -0.08300
C2111       C  0.91275781  0.43347577  0.70943688     0.62100
H2112       H  0.87253418  0.38193419  0.71654601     0.12800
H2113       H  0.80763115  0.48397478  0.73856604     0.12800
C2114       C  0.76997899  0.42867604  0.74422258     0.62300
F2115       F  0.92447186  0.40111411  0.70760583    -0.22900
F2116       F  0.93320601  0.44866976  0.73157065    -0.20200
F2117       F  0.91683735  0.44735026  0.67850803    -0.19900
F2118       F  0.76625669  0.41177445  0.77384150    -0.19900
F2119       F  0.75344672  0.41176643  0.71978120    -0.20200
F2120       F  0.75500017  0.45961082  0.74694340    -0.22900
C2121       C  0.53912563  0.21563308  0.65528047    -0.05700
C2122       C  0.52011137  0.24567124  0.65000181     0.00200
C2123       C  0.53483644  0.27469625  0.66451187    -0.08400
C2124       C  0.56795452  0.27268060  0.67743362    -0.05800
C2125       C  0.58680011  0.24311512  0.67899274     0.00200
C2126       C  0.57121251  0.21364231  0.66955592    -0.08300
C2127       C  0.58901921  0.18001893  0.67243392     0.62100
H2128       H  0.53064907  0.19269910  0.64605093     0.12800
H2129       H  0.57962595  0.29503762  0.68626269     0.12800
C2130       C  0.51919484  0.30921816  0.66696638     0.62300
F2131       F  0.57034133  0.15454524  0.65949021    -0.22900
F2132       F  0.59491351  0.17220418  0.70522146    -0.20200
F2133       F  0.61909252  0.18096922  0.65564223    -0.19900
F2134       F  0.51970201  0.31863567  0.69956279    -0.19900
F2135       F  0.48662055  0.31192619  0.65646193    -0.20200
F2136       F  0.53804117  0.33151769  0.64887250    -0.22900
C2137       C  0.73492028  0.36180786  0.59500231    -0.05700
C2138       C  0.73460742  0.32763324  0.59902754     0.00200
C2139       C  0.74002209  0.30747550  0.57144587    -0.08400
C2140       C  0.74645463  0.32265872  0.54042396    -0.05800
C2141       C  0.74875299  0.35765006  0.53595234     0.00200
C2142       C  0.74145230  0.37769767  0.56470420    -0.08300
C2143       C  0.74261105  0.41571227  0.56634406     0.62100
H2144       H  0.73158031  0.37622867  0.61703590     0.12800
H2145       H  0.75084294  0.30678427  0.51982036     0.12800
C2146       C  0.74027023  0.27004659  0.57523296     0.62300
F2147       F  0.77549712  0.42592097  0.56791155    -0.22900
F2148       F  0.72694663  0.42753429  0.59424357    -0.20200
F2149       F  0.72636194  0.43109219  0.54030813    -0.19900
F2150       F  0.70998358  0.25971169  0.58799468    -0.19900
F2151       F  0.76584714  0.26021218  0.59641217    -0.20200
F2152       F  0.74511064  0.25452282  0.54545817    -0.22900
C2153       C  0.91545068  0.23128634  0.82899418    -0.05700
C2154       C  0.89868654  0.26183385  0.83117314     0.00200
C2155       C  0.91562292  0.28854786  0.84490857    -0.08400
C2156       C  0.94679520  0.28237919  0.86010697    -0.05800
C2157       C  0.96476990  0.25127378  0.85938631     0.00200
C2158       C  0.94836976  0.22565344  0.84095705    -0.08300
C2159       C  0.96187094  0.19114203  0.83328721     0.62100
H2160       H  0.90235319  0.21109375  0.81739897     0.12800
H2161       H  0.95492746  0.30231992  0.87502094     0.12800
C2162       C  0.90035611  0.32330857  0.84493174     0.62300
F2163       F  0.94349817  0.16779191  0.85052200    -0.22900
F2164       F  0.99512572  0.18598311  0.84029550    -0.20200
F2165       F  0.95798175  0.18557997  0.79995972    -0.19900
F2166       F  0.86995775  0.32310580  0.86114788    -0.19900
F2167       F  0.89553636  0.33421669  0.81281002    -0.20200
F2168       F  0.92085769  0.34594384  0.86023283    -0.22900
C2169       C  0.73129026  0.15043446  0.91645949    -0.05700
C2170       C  0.75623664  0.17346318  0.90987675     0.00200
C2171       C  0.78118353  0.17783850  0.93452944    -0.08400
C2172       C  0.77868002  0.15974329  0.96488627    -0.05800
C2173       C  0.75345440  0.13599771  0.97140273     0.00200
C2174       C  0.73348191  0.12763129  0.94259509    -0.08300
C2175       C  0.71703229  0.09490425  0.93254802     0.62100
H2176       H  0.71219470  0.14629206  0.89794203     0.12800
H2177       H  0.79714118  0.16370522  0.98347607     0.12800
C2178       C  0.80976616  0.20188842  0.92955414     0.62300
F2179       F  0.72721484  0.08716144  0.90097755    -0.22900
F2180       F  0.68258418  0.09879731  0.93190001    -0.20200
F2181       F  0.72517442  0.06738034  0.95074176    -0.19900
F2182       F  0.79707357  0.23305434  0.92164751    -0.19900
F2183       F  0.83025784  0.19106337  0.90446976    -0.20200
F2184       F  0.82930173  0.20461804  0.95760558    -0.22900
C2185       C  0.59557389  0.96868278  0.80607829    -0.05700
C2186       C  0.59912169  0.00095890  0.79129340     0.00200
C2187       C  0.58245535  0.02753900  0.80856061    -0.08400
C2188       C  0.56900150  0.02135801  0.84027572    -0.05800
C2189       C  0.56835074  0.98963608  0.85477869     0.00200
C2190       C  0.58045349  0.96262009  0.83677462    -0.08300
C2191       C  0.57822521  0.92730328  0.85041705     0.62100
H2192       H  0.60460248  0.94703299  0.79382960     0.12800
H2193       H  0.55797711  0.04172034  0.85374216     0.12800
C2194       C  0.57632641  0.06259568  0.79527156     0.62300
F2195       F  0.59366752  0.90444937  0.83025540    -0.22900
F2196       F  0.54497239  0.91848349  0.85343760    -0.20200
F2197       F  0.59356531  0.92518185  0.88097931    -0.19900
F2198       F  0.54218148  0.06873237  0.79407431    -0.19900
F2199       F  0.58899960  0.06817530  0.76422740    -0.20200
F2200       F  0.59023903  0.08517741  0.81641834    -0.22900
C2201       C  0.62907083  0.01432164  0.69826866    -0.05700
C2202       C  0.60576960  0.01415198  0.72488673     0.00200
C2203       C  0.57073957  0.01898592  0.71471316    -0.08400
C2204       C  0.56328614  0.02442922  0.68068018    -0.05800
C2205       C  0.58723485  0.02163281  0.65592048     0.00200
C2206       C  0.62092991  0.01874828  0.66494125    -0.08300
C2207       C  0.64847484  0.01947702  0.63922483     0.62100
H2208       H  0.65440087  0.00710823  0.70291264     0.12800
H2209       H  0.53742777  0.02766914  0.67274837     0.12800
C2210       C  0.53823193  0.01579106  0.73444635     0.62300
F2211       F  0.67983253  0.02317219  0.65324278    -0.22900
F2212       F  0.64311745  0.04585989  0.61759077    -0.20200
F2213       F  0.64865511  0.99029825  0.62201086    -0.19900
F2214       F  0.52278596  0.04655835  0.73584330    -0.19900
F2215       F  0.54099049  0.00292027  0.76554015    -0.20200
F2216       F  0.51670706  0.99468060  0.71828297    -0.22900
C2217       C  0.65256623  0.04880233  0.79961610    -0.05700
C2218       C  0.64966049  0.03425528  0.76810593     0.00200
C2219       C  0.66961049  0.05030131  0.74379701    -0.08400
C2220       C  0.67038259  0.08510057  0.74426378    -0.05800
C2221       C  0.66753705  0.10198882  0.77410744     0.00200
C2222       C  0.66230576  0.08246788  0.80314388    -0.08300
C2223       C  0.66572694  0.09696988  0.83716071     0.62100
H2224       H  0.64564418  0.03452094  0.82119721     0.12800
H2225       H  0.68045773  0.09827906  0.72311385     0.12800
C2226       C  0.70356510  0.03547314  0.73459359     0.62300
F2227       F  0.65823927  0.07403199  0.86167402    -0.22900
F2228       F  0.64427465  0.12386682  0.84026329    -0.20200
F2229       F  0.69836915  0.10701532  0.84196781    -0.19900
F2230       F  0.71452298  0.04914585  0.70515518    -0.19900
F2231       F  0.70322933  0.00154083  0.73139395    -0.20200
F2232       F  0.72666772  0.04274506  0.75887827    -0.22900
C2233       C  0.82661877  0.57513659  0.77624507    -0.05700
C2234       C  0.82771985  0.59812072  0.74993754     0.00200
C2235       C  0.83158551  0.58532584  0.71788675    -0.08400
C2236       C  0.83968875  0.55158218  0.71447302    -0.05800
C2237       C  0.84823699  0.52997193  0.74125085     0.00200
C2238       C  0.83532661  0.54112490  0.77242503    -0.08300
C2239       C  0.82793666  0.51907844  0.80214701     0.62100
H2240       H  0.81954038  0.58386124  0.80036598     0.12800
H2241       H  0.83927569  0.54301690  0.69002175     0.12800
C2242       C  0.82717855  0.60675485  0.68677058     0.62300
F2243       F  0.79473174  0.52352432  0.81092331    -0.22900
F2244       F  0.84780364  0.52803755  0.82842338    -0.20200
F2245       F  0.83250737  0.48585001  0.79653433    -0.19900
F2246       F  0.85400412  0.62795463  0.68338631    -0.19900
F2247       F  0.79762568  0.62488613  0.68834998    -0.20200
F2248       F  0.82579809  0.58809311  0.65849607    -0.22900
C2249       C  0.79191009  0.84780296  0.59346769    -0.05700
C2250       C  0.76429061  0.83204579  0.60674592     0.00200
C2251       C  0.74008240  0.81943192  0.58510809    -0.08400
C2252       C  0.74319884  0.82574928  0.55101024    -0.05800
C2253       C  0.76877053  0.84553295  0.53659709     0.00200
C2254       C  0.79618803  0.85337784  0.55924272    -0.08300
C2255       C  0.83150914  0.86478906  0.55038471     0.62100
H2256       H  0.81058042  0.85586251  0.61094331     0.12800
H2257       H  0.72282253  0.81823168  0.53585430     0.12800
C2258       C  0.71041413  0.79993102  0.59798215     0.62300
F2259       F  0.85380236  0.86165629  0.57655748    -0.22900
F2260       F  0.83123880  0.89784068  0.54181518    -0.20200
F2261       F  0.84507695  0.84532641  0.52622029    -0.19900
F2262       F  0.69054405  0.82005367  0.61722112    -0.19900
F2263       F  0.72172757  0.77309119  0.61659085    -0.20200
F2264       F  0.69067742  0.78799891  0.57278450    -0.22900
C2265       C  0.58102911  0.78717474  0.83206517    -0.05700
C2266       C  0.60574686  0.76428402  0.84268714     0.00200
C2267       C  0.59733841  0.74115294  0.86768132    -0.08400
C2268       C  0.56402044  0.73929758  0.87793753    -0.05800
C2269       C  0.53743266  0.76070421  0.86668067     0.00200
C2270       C  0.54755460  0.78696717  0.84430560    -0.08300
C2271       C  0.52560566  0.81677524  0.83488439     0.62100
H2272       H  0.58852314  0.80597818  0.81437025     0.12800
H2273       H  0.55990926  0.72122231  0.89698273     0.12800
C2274       C  0.62332022  0.71867138  0.88500461     0.62300
F2275       F  0.52561959  0.83904511  0.86034043    -0.22900
F2276       F  0.49325306  0.80789497  0.82787889    -0.20200
F2277       F  0.53755068  0.83311185  0.80715542    -0.19900
F2278       F  0.65211389  0.73613764  0.89188918    -0.19900
F2279       F  0.63101745  0.69204012  0.86529754    -0.20200
F2280       F  0.61179026  0.70614577  0.91477356    -0.22900
C2281       C  0.65295554  0.91662705  0.73260702    -0.05700
C2282       C  0.67881392  0.91004419  0.75468985     0.00200
C2283       C  0.68762564  0.93415384  0.77793071    -0.08400
C2284       C  0.67003132  0.96470483  0.77763549    -0.05800
C2285       C  0.64282894  0.97170849  0.75582319     0.00200
C2286       C  0.63219392  0.94463841  0.73527759    -0.08300
C2287       C  0.59724595  0.94032387  0.72051511     0.62100
H2288       H  0.64640646  0.89730954  0.71553033     0.12800
H2289       H  0.67676969  0.98295372  0.79557598     0.12800
C2290       C  0.71578608  0.92781893  0.80255693     0.62300
F2291       F  0.58909703  0.90711875  0.71814570    -0.22900
F2292       F  0.59561165  0.95379053  0.68915875    -0.20200
F2293       F  0.57300004  0.95388929  0.74013667    -0.19900
F2294       F  0.74460853  0.91856708  0.78612763    -0.19900
F2295       F  0.70697512  0.90277405  0.82434965    -0.20200
F2296       F  0.72284453  0.95574454  0.82060780    -0.22900
C2297       C  0.73074361  0.68562535  0.92340426    -0.05700
C2298       C  0.74095629  0.66459594  0.89813711     0.00200
C2299       C  0.75185993  0.63244632  0.90616571    -0.08400
C2300       C  0.75231719  0.62286334  0.93917196    -0.05800
C2301       C  0.74401480  0.64335758  0.96644771     0.00200
C2302       C  0.73418528  0.67714530  0.95738349    -0.08300
C2303       C  0.72851992  0.70731623  0.97899341     0.62100
H2304       H  0.72252234  0.71047733  0.91634693     0.12800
H2305       H  0.76240579  0.59866508  0.94377016     0.12800
C2306       C  0.76327579  0.60778695  0.88016572     0.62300
F2307       F  0.74714736  0.73355306  0.96681546    -0.22900
F2308       F  0.73779451  0.70357910  0.01116716    -0.20200
F2309       F  0.69503757  0.71648800  0.97753473    -0.19900
F2310       F  0.79399030  0.61700786  0.86756131    -0.19900
F2311       F  0.73984790  0.60670047  0.85500879    -0.20200
F2312       F  0.76713022  0.57590312  0.89279334    -0.22900
C2313       C  0.91043576  0.77430670  0.64468792    -0.05700
C2314       C  0.90802044  0.75020251  0.66952645     0.00200
C2315       C  0.93643022  0.72945610  0.67559089    -0.08400
C2316       C  0.96647250  0.73551695  0.65773818    -0.05800
C2317       C  0.96889196  0.75986009  0.63218858     0.00200
C2318       C  0.93722702  0.77573813  0.62281447    -0.08300
C2319       C  0.92645802  0.79079211  0.58925967     0.62100
H2320       H  0.88889658  0.79013843  0.63939619     0.12800
H2321       H  0.98821600  0.72039798  0.66310282     0.12800
C2322       C  0.93543760  0.70136426  0.70076970     0.62300
F2323       F  0.89326361  0.78338884  0.58250288    -0.22900
F2324       F  0.94372246  0.77840291  0.56310010    -0.20200
F2325       F  0.92885435  0.82488938  0.58963905    -0.19900
F2326       F  0.91232546  0.67811976  0.69106858    -0.19900
F2327       F  0.92655800  0.71357180  0.73115486    -0.20200
F2328       F  0.96620522  0.68544854  0.70409775    -0.22900
loop_ 
_geom_bond_atom_site_label_1 
_geom_bond_atom_site_label_2 
_geom_bond_distance 
_geom_bond_site_symmetry_2 
_ccdc_geom_bond_type 
O1           Mg3   2.132       .  S
O1           Mg9   2.142       .  S
O1           C36   1.241       .  S
C2           O15   1.236       .  S
C2           O39   1.271       .  A
C2           H41   1.081       .  S
Mg3          O32   2.146       .  S
Mg3          O47   2.367       .  S
Mg3          O43   2.251       .  S
Mg3          O14   2.294       .  S
O4          Mg46   2.124       .  S
O4          Mg29   2.137       .  S
O4           C25   1.240       .  S
O5           C36   1.275       .  A
O5          Mg29   2.306       .  S
C6            O8   1.274       .  A
C6           O20   1.277       .  A
C6         C2250   1.491       .  S
O7           C35   1.268       .  A
O7           Mg9   2.275       .  S
O8          Mg40   2.289       .  S
Mg9          O15   2.142       .  S
Mg9          O23   2.230       .  S
Mg9          O11   2.293       .  S
C10          O48   1.272       .  A
C10          O16   1.278       .  A
C10        C2314   1.507       .  S
O11          C18   1.271       .  A
H12          C25   1.081       .  S
C13          O27   1.241       .  S
C13          O28   1.275       .  A
C13          H38   1.081       .  S
O14          C37   1.271       .  A
O15         Mg29   2.128       .  S
O16         Mg46   2.369       .  S
C17          O30   1.272       .  A
C17          O22   1.282       .  A
C17        C2234   1.504       .  S
C18          O45   1.270       .  A
C18        C2298   1.479       .  S
Mg19         O26   2.122       .  S
Mg19         O27   2.127       .  S
Mg19         O20   2.323       .  S
Mg19         O21   2.305       .  S
Mg19         O48   2.225       .  S
O21          C25   1.274       .  A
O22         Mg29   2.375       .  S
O23          C42   1.269       .  A
O24          C44   1.282       .  A
O24         Mg40   2.339       .  S
O26         Mg40   2.133       .  S
O26          C37   1.238       .  S
O27         Mg46   2.144       .  S
O28         Mg40   2.309       .  S
Mg29         O45   2.239       .  S
O30         Mg46   2.261       .  S
H31          C36   1.081       .  S
O32         Mg40   2.113       .  S
O32          C35   1.236       .  S
H33          C35   1.081       .  S
H34          C37   1.081       .  S
O39         Mg46   2.311       .  S
C42          O47   1.281       .  A
C42        C2266   1.499       .  S
O43          C44   1.274       .  A
C44        C2282   1.475       .  S
C49        C2186   1.600       .  S
C49        C2202   1.614       .  S
C49        C2218   1.616       .  S
C49        C2285   1.585   1_545  S
O50         Mg52   2.140       .  S
O50         Mg58   2.131       .  S
O50          C85   1.240       .  S
C51          O64   1.240       .  S
C51          O88   1.274       .  A
C51          H90   1.081       .  S
Mg52         O81   2.147       .  S
Mg52         O96   2.355       .  S
Mg52         O92   2.238       .  S
Mg52         O63   2.298       .  S
O53         Mg95   2.138       .  S
O53         Mg78   2.137       .  S
O53          C74   1.239       .  S
O54          C85   1.274       .  A
O54         Mg78   2.308       .  S
C55          O57   1.275       .  A
C55          O69   1.277       .  A
C55        C2106   1.483       .  S
O56          C84   1.273       .  A
O56         Mg58   2.300       .  S
O57         Mg89   2.282       .  S
Mg58         O64   2.147       .  S
Mg58         O72   2.253       .  S
Mg58         O60   2.349       .  S
C59          O97   1.272       .  A
C59          O65   1.281       .  A
C59        C2138   1.485       .  S
O60          C67   1.278       .  A
H61          C74   1.081       .  S
C62          O76   1.241       .  S
C62          O77   1.275       .  A
C62          H87   1.081       .  S
O63          C86   1.271       .  A
O64         Mg78   2.135       .  S
O65         Mg95   2.372       .  S
C66          O79   1.276       .  A
C66          O71   1.280       .  A
C66        C2125   1.498       .  S
C67          O94   1.277       .  A
C67        C2221   1.504       .  S
Mg68         O75   2.135       .  S
Mg68         O76   2.134       .  S
Mg68         O69   2.330       .  S
Mg68         O70   2.300       .  S
Mg68         O97   2.247       .  S
O70          C74   1.273       .  A
O71         Mg78   2.342       .  S
O72          C91   1.276       .  A
O73          C93   1.282       .  A
O73         Mg89   2.356       .  S
O75         Mg89   2.135       .  S
O75          C86   1.237       .  S
O76         Mg95   2.146       .  S
O77         Mg89   2.310       .  S
Mg78         O94   2.288       .  S
O79         Mg95   2.281       .  S
H80          C85   1.081       .  S
O81         Mg89   2.143       .  S
O81          C84   1.239       .  S
H82          C84   1.081       .  S
H83          C86   1.081       .  S
O88         Mg95   2.311       .  S
C91          O96   1.276       .  A
C91        C2170   1.512       .  S
O92          C93   1.272       .  A
C93        C2154   1.488       .  S
C98        C2074   1.608       .  S
C98        C2090   1.592       .  S
C98        C2109   1.607       .  S
C98        C2237   1.622       .  S
C99        C2026   1.605       .  S
C99        C2042   1.600       .  S
C99        C2058   1.587       .  S
C99        C2253   1.615       .  S
O100       Mg102   2.157       .  S
O100       Mg108   2.133       .  S
O100        C135   1.241       .  S
C101        O114   1.237       .  S
C101        O138   1.270       .  A
C101        H140   1.081       .  S
Mg102       O131   2.128       .  S
Mg102       O146   2.334       .  S
Mg102       O142   2.296       .  S
Mg102       O113   2.305       .  S
O103       Mg145   2.125       .  S
O103       Mg128   2.132       .  S
O103        C124   1.240       .  S
O104        C135   1.275       .  A
O104       Mg128   2.313       .  S
C105        O107   1.274       .  A
C105        O119   1.280       .  A
C105       C2061   1.480       .  S
O106        C134   1.274       .  A
O106       Mg108   2.302       .  S
O107       Mg139   2.260       .  S
Mg108       O114   2.108       .  S
Mg108       O122   2.232       .  S
Mg108       O110   2.335       .  S
C109        O147   1.274       .  A
C109        O115   1.271       .  A
C109       C1981   1.480       .  S
O110        C117   1.279       .  A
H111        C124   1.081       .  S
C112        O126   1.240       .  S
C112        O127   1.275       .  A
C112        H137   1.081       .  S
O113        C136   1.273       .  A
O114       Mg128   2.131       .  S
O115       Mg145   2.286       .  S
C116        O129   1.266       .  A
C116        O121   1.282       .  A
C116       C1994   1.509       .  S
C117        O144   1.274       .  A
C117       C1946   1.496       .  S
Mg118       O125   2.143       .  S
Mg118       O126   2.136       .  S
Mg118       O119   2.347       .  S
Mg118       O120   2.306       .  S
Mg118       O147   2.284       .  S
O120        C124   1.274       .  A
O121       Mg128   2.371       .  S
O122        C141   1.272       .  A
O123        C143   1.284       .  A
O123       Mg139   2.377       .  S
O125       Mg139   2.136       .  S
O125        C136   1.239       .  S
O126       Mg145   2.145       .  S
O127       Mg139   2.315       .  S
Mg128       O144   2.276       .  S
O129       Mg145   2.240       .  S
H130        C135   1.081       .  S
O131       Mg139   2.116       .  S
O131        C134   1.241       .  S
H132        C134   1.081       .  S
H133        C136   1.081       .  S
O138       Mg145   2.290       .  S
C141        O146   1.277       .  A
C141       C2010   1.478       .  S
O142        C143   1.276       .  A
C143       C1962   1.519       .  S
C148       C1914   1.586   1_554  S
C148       C1930   1.608       .  S
C148       C1949   1.610       .  S
C148       C2301   1.610   1_554  S
C149       C1869   1.612       .  S
C149       C1882   1.601       .  S
C149       C1898   1.583       .  S
C149       C1978   1.576       .  S
C150       C1805   1.587   1_545  S
C150       C1818   1.633       .  S
C150       C1834   1.599       .  S
C150       C1853   1.609       .  S
C151       C1754   1.571       .  S
C151       C1770   1.586       .  S
C151       C1789   1.604       .  S
C151       C2173   1.606   1_554  S
C152       C1690   1.598       .  S
C152       C1706   1.614       .  S
C152       C1722   1.613       .  S
C152       C1738   1.586       .  S
C153       C1642   1.618       .  S
C153       C1658   1.632       .  S
C153       C1674   1.575       .  S
C153       C2141   1.593       .  S
C154       C1597   1.604       .  S
C154       C1610   1.588       .  S
C154       C1626   1.603       .  S
C154       C1997   1.615       .  S
C155       C1530   1.604       .  S
C155       C1546   1.593       .  S
C155       C1562   1.584       .  S
C155       C1578   1.589       .  S
C156       C1482   1.632   1_655  S
C156       C1501   1.580       .  S
C156       C1517   1.604   1_655  S
C156       C2013   1.572       .  S
O157       Mg159   2.123       .  S
O157       Mg165   2.133       .  S
O157        C192   1.240       .  S
C158        O171   1.238       .  S
C158        O195   1.273       .  A
C158        H197   1.081       .  S
Mg159       O188   2.136       .  S
Mg159       O203   2.334       .  S
Mg159       O199   2.239       .  S
Mg159       O170   2.300       .  S
O160       Mg202   2.138       .  S
O160       Mg185   2.139       .  S
O160        C181   1.240       .  S
O161        C192   1.273       .  A
O161       Mg185   2.306       .  S
C162        O164   1.273       .  A
C162        O176   1.281       .  A
C162       C1469   1.509       .  S
O163        C191   1.272       .  A
O163       Mg165   2.294       .  S
O164       Mg196   2.302       .  S
Mg165       O171   2.152       .  S
Mg165       O179   2.294       .  S
Mg165       O167   2.278       .  S
C166        O204   1.277       .  A
C166        O172   1.280       .  A
C166       C1485   1.493       .  S
O167        C174   1.271       .  A
H168        C181   1.081       .  S
C169        O183   1.242       .  S
C169        O184   1.276       .  A
C169        H194   1.081       .  S
O170        C193   1.272       .  A
O171       Mg185   2.149       .  S
O172       Mg202   2.346       .  S
C173        O186   1.276       .  A
C173        O178   1.281       .  A
C173       C1437   1.492       .  S
C174        O201   1.275       .  A
C174       C1450   1.488       .  S
Mg175       O182   2.133       .  S
Mg175       O183   2.146       .  S
Mg175       O176   2.309       .  S
Mg175       O177   2.304       .  S
Mg175       O204   2.304       .  S
O177        C181   1.274       .  A
O178       Mg185   2.353       .  S
O179        C198   1.274       .  A
O180        C200   1.281       .  A
O180       Mg196   2.351       .  S
O182       Mg196   2.150       .  S
O182        C193   1.238       .  S
O183       Mg202   2.149       .  S
O184       Mg196   2.314       .  S
Mg185       O201   2.279       .  S
O186       Mg202   2.291       .  S
H187        C192   1.081       .  S
O188       Mg196   2.132       .  S
O188        C191   1.239       .  S
H189        C191   1.081       .  S
H190        C193   1.081       .  S
O195       Mg202   2.307       .  S
C198        O203   1.277       .  A
C198       C1866   1.488       .  S
O199        C200   1.271       .  A
C200       C1581   1.475       .  S
C205       C1386   1.575   1_554  S
C205       C1402   1.581       .  S
C205       C1421   1.597   1_554  S
C205       C1434   1.629       .  S
C206       C1338   1.608       .  S
C206       C1354   1.572       .  S
C206       C1370   1.583       .  S
C206       C2122   1.613       .  S
O207       Mg209   2.096       .  S
O207       Mg215   2.136       .  S
O207        C242   1.236       .  S
C208        O221   1.241       .  S
C208        O245   1.275       .  A
C208        H247   1.081       .  S
Mg209       O238   2.150       .  S
Mg209       O253   2.321       .  S
Mg209       O249   2.234       .  S
Mg209       O220   2.308       .  S
O210       Mg252   2.150       .  S
O210       Mg235   2.132       .  S
O210        C231   1.237       .  S
O211        C242   1.267       .  A
O211       Mg235   2.281       .  S
C212        O214   1.277       .  A
C212        O226   1.283       .  A
C212       C1322   1.495       .  S
O213        C241   1.272       .  A
O213       Mg215   2.300       .  S
O214       Mg246   2.301       .  S
Mg215       O221   2.137       .  S
Mg215       O229   2.288       .  S
Mg215       O217   2.297       .  S
C216        O254   1.278       .  A
C216        O222   1.276       .  A
C216       C1821   1.504       .  S
O217        C224   1.276       .  A
H218        C231   1.081       .  S
C219        O233   1.241       .  S
C219        O234   1.275       .  A
C219        H244   1.081       .  S
O220        C243   1.273       .  A
O221       Mg235   2.159       .  S
O222       Mg252   2.315       .  S
C223        O236   1.273       .  A
C223        O228   1.275       .  A
C223       C1293   1.491       .  S
C224        O251   1.274       .  A
C224       C1306   1.486       .  S
Mg225       O232   2.130       .  S
Mg225       O233   2.153       .  S
Mg225       O226   2.364       .  S
Mg225       O227   2.300       .  S
Mg225       O254   2.306       .  S
O227        C231   1.271       .  A
O228       Mg235   2.281       .  S
O229        C248   1.273       .  A
O230        C250   1.280       .  A
O230       Mg246   2.315       .  S
O232       Mg246   2.124       .  S
O232        C243   1.239       .  S
O233       Mg252   2.145       .  S
O234       Mg246   2.306       .  S
Mg235       O251   2.284       .  S
O236       Mg252   2.294       .  S
H237        C242   1.081       .  S
O238       Mg246   2.152       .  S
O238        C241   1.239       .  S
H239        C241   1.081       .  S
H240        C243   1.081       .  S
O245       Mg252   2.306       .  S
C248        O253   1.277       .  A
C248       C1709   1.488       .  S
O249        C250   1.266       .  A
C250       C1373   1.488       .  S
C255       C1258   1.588   1_655  S
C255       C1274   1.598       .  S
C255       C1290   1.606   1_655  S
C255       C2157   1.611       .  S
O256       Mg258   2.144       .  S
O256       Mg264   2.144       .  S
O256        C291   1.237       .  S
C257        O270   1.239       .  S
C257        O294   1.272       .  A
C257        H296   1.081       .  S
Mg258       O287   2.156       .  S
Mg258       O302   2.320       .  S
Mg258       O298   2.293       .  S
Mg258       O269   2.302       .  S
O259       Mg301   2.156       .  S
O259       Mg284   2.126       .  S
O259        C280   1.238       .  S
O260        C291   1.271       .  A
O260       Mg284   2.302       .  S
C261        O263   1.281       .  A
C261        O275   1.276       .  A
C261       C1645   1.488       .  S
O262        C290   1.273       .  A
O262       Mg264   2.311       .  S
O263       Mg295   2.316       .  S
Mg264       O270   2.113       .  S
Mg264       O278   2.262       .  S
Mg264       O266   2.320       .  S
C265        O303   1.276       .  A
C265        O271   1.267       .  A
C265       C1629   1.507       .  S
O266        C273   1.280       .  A
H267        C280   1.081       .  S
C268        O282   1.237       .  S
C268        O283   1.270       .  A
C268        H293   1.081       .  S
O269        C292   1.273       .  A
O270       Mg284   2.153       .  S
O271       Mg301   2.269       .  S
C272        O285   1.263       .  A
C272        O277   1.274       .  A
C272       C1242   1.466       .  S
C273        O300   1.271       .  A
C273       C1757   1.483       .  S
Mg274       O281   2.131       .  S
Mg274       O282   2.137       .  S
Mg274       O275   2.311       .  S
Mg274       O276   2.295       .  S
Mg274       O303   2.304       .  S
O276        C280   1.271       .  A
O277       Mg284   2.284       .  S
O278        C297   1.272       .  A
O279        C299   1.281       .  A
O279       Mg295   2.309       .  S
O281       Mg295   2.143       .  S
O281        C292   1.239       .  S
O282       Mg301   2.095       .  S
O283       Mg295   2.288       .  S
Mg284       O300   2.279       .  S
O285       Mg301   2.218       .  S
H286        C291   1.081       .  S
O287       Mg295   2.156       .  S
O287        C290   1.238       .  S
H288        C290   1.081       .  S
H289        C292   1.081       .  S
O294       Mg301   2.294       .  S
C297        O302   1.277       .  A
C297       C1213   1.497       .  S
O298        C299   1.273       .  A
C299       C1226   1.497       .  S
C304       C1178   1.606       .  S
C304       C1194   1.589   1_565  S
C304       C1210   1.611   1_565  S
C304       C1965   1.613       .  S
C305       C1130   1.574       .  S
C305       C1149   1.595       .  S
C305       C1162   1.606       .  S
C305       C1229   1.595   1_455  S
O306       Mg308   2.131       .  S
O306       Mg314   2.132       .  S
O306        C341   1.239       .  S
C307        O320   1.239       .  S
C307        O344   1.273       .  A
C307        H346   1.081       .  S
Mg308       O337   2.122       .  S
Mg308       O352   2.338       .  S
Mg308       O348   2.260       .  S
Mg308       O319   2.315       .  S
O309       Mg351   2.136       .  S
O309       Mg334   2.133       .  S
O309        C330   1.237       .  S
O310        C341   1.273       .  A
O310       Mg334   2.299       .  S
C311        O313   1.269       .  A
C311        O325   1.279       .  A
C311       C1098   1.498       .  S
O312        C340   1.273       .  A
O312       Mg314   2.306       .  S
O313       Mg345   2.261       .  S
Mg314       O320   2.152       .  S
Mg314       O328   2.282       .  S
Mg314       O316   2.331       .  S
C315        O353   1.272       .  A
C315        O321   1.282       .  A
C315       C1066   1.488       .  S
O316        C323   1.277       .  A
H317        C330   1.081       .  S
C318        O332   1.242       .  S
C318        O333   1.278       .  A
C318        H343   1.081       .  S
O319        C342   1.272       .  A
O320       Mg334   2.143       .  S
O321       Mg351   2.370       .  S
C322        O335   1.278       .  A
C322        O327   1.280       .  A
C322       C1165   1.490       .  S
C323        O350   1.273       .  A
C323       C1050   1.473       .  S
Mg324       O331   2.117       .  S
Mg324       O332   2.141       .  S
Mg324       O325   2.332       .  S
Mg324       O326   2.300       .  S
Mg324       O353   2.233       .  S
O326        C330   1.271       .  A
O327       Mg334   2.351       .  S
O328        C347   1.276       .  A
O329        C349   1.276       .  A
O329       Mg345   2.345       .  S
O331       Mg345   2.124       .  S
O331        C342   1.238       .  S
O332       Mg351   2.170       .  S
O333       Mg345   2.321       .  S
Mg334       O350   2.252       .  S
O335       Mg351   2.298       .  S
H336        C341   1.081       .  S
O337       Mg345   2.145       .  S
O337        C340   1.239       .  S
H338        C340   1.081       .  S
H339        C342   1.081       .  S
O344       Mg351   2.304       .  S
C347        O352   1.277       .  A
C347       C1117   1.506       .  S
O348        C349   1.271       .  A
C349       C1082   1.492       .  S
C354       C1018   1.602       .  S
C354       C1034   1.599       .  S
C354       C1114   1.609   1_556  S
C354       C1309   1.596       .  S
C355        C986   1.634       .  S
C355       C1002   1.587       .  S
C355       C1101   1.602   1_565  S
C355       C1453   1.598       .  S
O356       Mg358   2.132       .  S
O356       Mg364   2.137   1_545  S
O356        C391   1.239       .  S
C357        O370   1.237       .  S
C357        O394   1.270   1_655  A
C357        H396   1.081       .  S
Mg358       O387   2.148   1_655  S
Mg358       O402   2.341       .  S
Mg358       O398   2.281       .  S
Mg358       O369   2.307       .  S
O359       Mg401   2.139   1_655  S
O359       Mg384   2.146       .  S
O359        C380   1.241   1_565  S
O360        C391   1.273       .  A
O360       Mg384   2.300   1_545  S
C361        O363   1.268       .  A
C361        O375   1.276       .  A
C361        C970   1.493       .  S
O362        C390   1.271   1_665  A
O362       Mg364   2.298       .  S
O363       Mg395   2.255       .  S
Mg364       O370   2.112       .  S
Mg364       O378   2.222       .  S
Mg364       O366   2.330       .  S
C365        O403   1.270       .  A
C365        O371   1.278   1_545  A
C365       C1837   1.491       .  S
O366        C373   1.276       .  A
H367        C380   1.081       .  S
C368        O382   1.236       .  S
C368        O383   1.269       .  A
C368        H393   1.081   1_545  S
O369        C392   1.274       .  A
O370       Mg384   2.128       .  S
O371       Mg401   2.312       .  S
C372        O385   1.269   1_655  A
C372        O377   1.277       .  A
C372        C954   1.475       .  S
C373        O400   1.273       .  A
C373       C2029   1.477       .  S
Mg374       O381   2.137       .  S
Mg374       O382   2.122       .  S
Mg374       O375   2.341       .  S
Mg374       O376   2.311   1_455  S
Mg374       O403   2.255       .  S
O376        C380   1.275       .  A
O377       Mg384   2.334       .  S
O378        C397   1.269   1_565  A
O379        C399   1.270   1_455  A
O379       Mg395   2.260       .  S
O381       Mg395   2.122       .  S
O381        C392   1.240   1_455  S
O382       Mg401   2.094   1_545  S
O383       Mg395   2.296       .  S
Mg384       O400   2.265       .  S
O385       Mg401   2.230       .  S
H386        C391   1.081       .  S
O387       Mg395   2.128       .  S
O387        C390   1.238       .  S
H388        C390   1.081       .  S
H389        C392   1.081       .  S
O394       Mg401   2.295       .  S
C397        O402   1.279       .  A
C397       C1197   1.468       .  S
O398        C399   1.273       .  A
C399       C1146   1.471       .  S
O404       Mg406   2.130   1_545  S
O404       Mg412   2.151   1_455  S
O404        C439   1.238       .  S
C405        O418   1.240       .  S
C405        O442   1.273   1_545  A
C405        H444   1.081       .  S
Mg406       O435   2.155       .  S
Mg406       O450   2.298       .  S
Mg406       O446   2.267       .  S
Mg406       O417   2.292   1_556  S
O407       Mg449   2.144   1_545  S
O407       Mg432   2.142       .  S
O407        C428   1.239       .  S
O408        C439   1.272   1_554  A
O408       Mg432   2.299   1_455  S
C409        O411   1.272       .  A
C409        O423   1.279       .  A
C409       C1514   1.490       .  S
O410        C438   1.272   1_655  A
O410       Mg412   2.300   1_565  S
O411       Mg443   2.288   1_554  S
Mg412       O418   2.128       .  S
Mg412       O426   2.276   1_655  S
Mg412       O414   2.297       .  S
C413        O451   1.274       .  A
C413        O419   1.281       .  A
C413       C1181   1.494       .  S
O414        C421   1.273       .  A
H415        C428   1.081       .  S
C416        O430   1.237       .  S
C416        O431   1.271       .  A
C416        H441   1.081       .  S
O417        C440   1.270       .  A
O418       Mg432   2.148   1_556  S
O419       Mg449   2.334       .  S
C420        O433   1.273       .  A
C420        O425   1.277       .  A
C420       C1786   1.472       .  S
C421        O448   1.276       .  A
C421       C1277   1.501       .  S
Mg422       O429   2.120       .  S
Mg422       O430   2.140   1_455  S
Mg422       O423   2.298       .  S
Mg422       O424   2.303   1_565  S
Mg422       O451   2.286   1_455  S
O424        C428   1.273   1_455  A
O425       Mg432   2.309       .  S
O426        C445   1.273       .  A
O427        C447   1.272       .  A
O427       Mg443   2.274       .  S
O429       Mg443   2.155   1_554  S
O429        C440   1.237       .  S
O430       Mg449   2.126       .  S
O431       Mg443   2.294   1_654  S
Mg432       O448   2.314   1_554  S
O433       Mg449   2.270   1_545  S
H434        C439   1.081       .  S
O435       Mg443   2.137       .  S
O435        C438   1.238       .  S
H436        C438   1.081       .  S
H437        C440   1.081       .  S
O442       Mg449   2.303   1_556  S
C445        O450   1.273   1_545  A
C445       C1850   1.494       .  S
O446        C447   1.272       .  A
C447       C1418   1.472       .  S
O452       Mg454   2.131       .  S
O452       Mg460   2.131       .  S
O452        C487   1.238       .  S
C453        O466   1.236       .  S
C453        O490   1.269       .  A
C453        H492   1.081       .  S
Mg454       O483   2.135       .  S
Mg454       O498   2.343       .  S
Mg454       O494   2.227       .  S
Mg454       O465   2.298       .  S
O455       Mg497   2.144       .  S
O455       Mg480   2.121       .  S
O455        C476   1.239       .  S
O456        C487   1.272   1_545  A
O456       Mg480   2.301       .  S
C457        O459   1.277   1_545  A
C457        O471   1.277       .  A
C457       C2205   1.488       .  S
O458        C486   1.275       .  A
O458       Mg460   2.314       .  S
O459       Mg491   2.282       .  S
Mg460       O466   2.115       .  S
Mg460       O474   2.233       .  S
Mg460       O462   2.333       .  S
C461        O499   1.268       .  A
C461        O467   1.272       .  A
C461       C1357   1.457       .  S
O462        C469   1.277       .  A
H463        C476   1.081       .  S
C464        O478   1.237       .  S
C464        O479   1.272   1_545  A
C464        H489   1.081       .  S
O465        C488   1.271   1_565  A
O466       Mg480   2.134   1_565  S
O467       Mg497   2.293       .  S
C468        O481   1.274       .  A
C468        O473   1.277       .  A
C468        C938   1.481       .  S
C469        O496   1.271   1_565  A
C469       C1005   1.472       .  S
Mg470       O477   2.132       .  S
Mg470       O478   2.148       .  S
Mg470       O471   2.333       .  S
Mg470       O472   2.297       .  S
Mg470       O499   2.226       .  S
O472        C476   1.272       .  A
O473       Mg480   2.329       .  S
O474        C493   1.267       .  A
O475        C495   1.280       .  A
O475       Mg491   2.380       .  S
O477       Mg491   2.137   1_545  S
O477        C488   1.237       .  S
O478       Mg497   2.155       .  S
O479       Mg491   2.306       .  S
Mg480       O496   2.244       .  S
O481       Mg497   2.279       .  S
H482        C487   1.081       .  S
O483       Mg491   2.159       .  S
O483        C486   1.240       .  S
H484        C486   1.081       .  S
H485        C488   1.081       .  S
O490       Mg497   2.287   1_565  S
C493        O498   1.280       .  A
C493       C1901   1.481       .  S
O494        C495   1.274       .  A
C495       C2045   1.513       .  S
C500        C941   1.600       .  S
C500        C973   1.598       .  S
C500       C1069   1.610       .  S
C500       C1325   1.622       .  S
O501       Mg503   2.107   1_556  S
O501       Mg509   2.136   1_545  S
O501        C536   1.237       .  S
C502        O515   1.238       .  S
C502        O539   1.271   1_556  A
C502        H541   1.081       .  S
Mg503       O532   2.133       .  S
Mg503       O547   2.303       .  S
Mg503       O543   2.236       .  S
Mg503       O514   2.300       .  S
O504       Mg546   2.151   1_556  S
O504       Mg529   2.153       .  S
O504        C525   1.240       .  S
O505        C536   1.269       .  A
O505       Mg529   2.284   1_545  S
C506        O508   1.274       .  A
C506        O520   1.277       .  A
C506        C989   1.498       .  S
O507        C535   1.274   1_565  A
O507       Mg509   2.304   1_554  S
O508       Mg540   2.295       .  S
Mg509       O515   2.110       .  S
Mg509       O523   2.266   1_565  S
Mg509       O511   2.341       .  S
C510        O548   1.269       .  A
C510        O516   1.279       .  A
C510       C1405   1.480       .  S
O511        C518   1.280       .  A
H512        C525   1.081       .  S
C513        O527   1.238       .  S
C513        O528   1.273       .  A
C513        H538   1.081       .  S
O514        C537   1.274       .  A
O515       Mg529   2.136       .  S
O516       Mg546   2.294       .  S
C517        O530   1.276       .  A
C517        O522   1.275       .  A
C517        C906   1.476       .  S
C518        O545   1.277       .  A
C518       C2189   1.490       .  S
Mg519       O526   2.111       .  S
Mg519       O527   2.153   1_545  S
Mg519       O520   2.319       .  S
Mg519       O521   2.315   1_554  S
Mg519       O548   2.265   1_545  S
O521        C525   1.275   1_545  A
O522       Mg529   2.304       .  S
O523        C542   1.272       .  A
O524        C544   1.276       .  A
O524       Mg540   2.327       .  S
O526       Mg540   2.139       .  S
O526        C537   1.240       .  S
O527       Mg546   2.142       .  S
O528       Mg540   2.308   1_565  S
Mg529       O545   2.292       .  S
O530       Mg546   2.294   1_556  S
H531        C536   1.081       .  S
O532       Mg540   2.137       .  S
O532        C535   1.241       .  S
H533        C535   1.081       .  S
H534        C537   1.081       .  S
O539       Mg546   2.289       .  S
C542        O547   1.277   1_556  A
C542       C1773   1.482       .  S
O543        C544   1.269       .  A
C544        C922   1.473       .  S
C549        C893   1.591       .  S
C549        C925   1.608       .  S
C549       C1085   1.609       .  S
C549       C1245   1.568       .  S
O550       Mg552   2.135       .  S
O550       Mg558   2.132   1_554  S
O550        C585   1.239       .  S
C551        O564   1.238       .  S
C551        O588   1.272       .  A
C551        H590   1.081       .  S
Mg552       O581   2.128       .  S
Mg552       O596   2.330       .  S
Mg552       O592   2.263       .  S
Mg552       O563   2.310       .  S
O553       Mg595   2.139       .  S
O553       Mg578   2.135       .  S
O553        C574   1.238       .  S
O554        C585   1.273       .  A
O554       Mg578   2.304   1_554  S
C555        O557   1.272       .  A
C555        O569   1.274       .  A
C555        C890   1.480       .  S
O556        C584   1.271   1_556  A
O556       Mg558   2.296       .  S
O557       Mg589   2.229       .  S
Mg558       O564   2.160       .  S
Mg558       O572   2.285       .  S
Mg558       O560   2.314       .  S
C559        O597   1.273   1_556  A
C559        O565   1.279       .  A
C559       C1037   1.494       .  S
O560        C567   1.275       .  A
H561        C574   1.081       .  S
C562        O576   1.239       .  S
C562        O577   1.273   1_556  A
C562        H587   1.081       .  S
O563        C586   1.274       .  A
O564       Mg578   2.146       .  S
O565       Mg595   2.338       .  S
C566        O579   1.275       .  A
C566        O571   1.283       .  A
C566       C1725   1.495       .  S
C567        O594   1.274       .  A
C567        C874   1.470       .  S
Mg568       O575   2.157       .  S
Mg568       O576   2.144   1_554  S
Mg568       O569   2.322       .  S
Mg568       O570   2.300       .  S
Mg568       O597   2.277       .  S
O570        C574   1.272   1_554  A
O571       Mg578   2.373       .  S
O572        C591   1.277   1_556  A
O573        C593   1.280       .  A
O573       Mg589   2.355       .  S
O575       Mg589   2.138       .  S
O575        C586   1.240       .  S
O576       Mg595   2.131       .  S
O577       Mg589   2.304       .  S
Mg578       O594   2.254       .  S
O579       Mg595   2.262       .  S
H580        C585   1.081       .  S
O581       Mg589   2.112       .  S
O581        C584   1.238       .  S
H582        C584   1.081       .  S
H583        C586   1.081       .  S
O588       Mg595   2.304       .  S
C591        O596   1.275       .  A
C591       C1933   1.507       .  S
O592        C593   1.272       .  A
C593       C1594   1.483       .  S
O598       Mg600   2.131       .  S
O598       Mg606   2.144       .  S
O598        C633   1.240       .  S
C599        O612   1.239       .  S
C599        O636   1.273       .  A
C599        H638   1.081       .  S
Mg600       O629   2.151       .  S
Mg600       O644   2.282       .  S
Mg600       O640   2.265       .  S
Mg600       O611   2.286       .  S
O601       Mg643   2.130       .  S
O601       Mg626   2.123       .  S
O601        C622   1.240       .  S
O602        C633   1.274       .  A
O602       Mg626   2.309   1_655  S
C603        O605   1.276       .  A
C603        O617   1.272       .  A
C603       C1133   1.480       .  S
O604        C632   1.272       .  A
O604       Mg606   2.298       .  S
O605       Mg637   2.277       .  S
Mg606       O612   2.147   1_655  S
Mg606       O620   2.303       .  S
Mg606       O608   2.311       .  S
C607        O645   1.270       .  A
C607        O613   1.278       .  A
C607        C858   1.476       .  S
O608        C615   1.275   1_655  A
H609        C622   1.081       .  S
C610        O624   1.238       .  S
C610        O625   1.271       .  A
C610        H635   1.081       .  S
O611        C634   1.269       .  A
O612       Mg626   2.136       .  S
O613       Mg643   2.332       .  S
C614        O627   1.272       .  A
C614        O619   1.279       .  A
C614       C1565   1.483       .  S
C615        O642   1.271       .  A
C615        C842   1.473       .  S
Mg616       O623   2.128       .  S
Mg616       O624   2.137   1_655  S
Mg616       O617   2.288       .  S
Mg616       O618   2.297       .  S
Mg616       O645   2.251   1_655  S
O618        C622   1.273   1_655  A
O619       Mg626   2.339       .  S
O620        C639   1.275       .  A
O621        C641   1.282       .  A
O621       Mg637   2.339       .  S
O623       Mg637   2.150       .  S
O623        C634   1.236       .  S
O624       Mg643   2.123       .  S
O625       Mg637   2.297   1_455  S
Mg626       O642   2.253       .  S
O627       Mg643   2.266       .  S
H628        C633   1.081       .  S
O629       Mg637   2.122       .  S
O629        C632   1.239       .  S
H630        C632   1.081       .  S
H631        C634   1.081       .  S
O636       Mg643   2.312       .  S
C639        O644   1.271       .  A
C639       C2077   1.497       .  S
O640        C641   1.271       .  A
C641       C1677   1.485       .  S
O646       Mg648   2.096   1_554  S
O646       Mg654   2.136       .  S
O646        C681   1.236       .  S
C647        O660   1.240       .  S
C647        O684   1.273   1_554  A
C647        H686   1.081       .  S
Mg648       O677   2.142       .  S
Mg648       O692   2.276       .  S
Mg648       O688   2.211       .  S
Mg648       O659   2.293   1_455  S
O649       Mg691   2.144   1_554  S
O649       Mg674   2.119       .  S
O649        C670   1.239       .  S
O650        C681   1.268   1_655  A
O650       Mg674   2.285       .  S
C651        O653   1.274       .  A
C651        O665   1.277       .  A
C651       C2093   1.481       .  S
O652        C680   1.272       .  A
O652       Mg654   2.301   1_556  S
O653       Mg685   2.264       .  S
Mg654       O660   2.126       .  S
Mg654       O668   2.287       .  S
Mg654       O656   2.307       .  S
C655        O693   1.270       .  A
C655        O661   1.276       .  A
C655       C1917   1.471       .  S
O656        C663   1.278       .  A
H657        C670   1.081       .  S
C658        O672   1.238       .  S
C658        O673   1.271   1_655  A
C658        H683   1.081       .  S
O659        C682   1.271       .  A
O660       Mg674   2.149   1_455  S
O661       Mg691   2.299       .  S
C662        O675   1.272       .  A
C662        O667   1.274       .  A
C662       C1498   1.481       .  S
C663        O690   1.271       .  A
C663        C826   1.488       .  S
Mg664       O671   2.116       .  S
Mg664       O672   2.141       .  S
Mg664       O665   2.322       .  S
Mg664       O666   2.295   1_556  S
Mg664       O693   2.253       .  S
O666        C670   1.272       .  A
O667       Mg674   2.276       .  S
O668        C687   1.274       .  A
O669        C689   1.278   1_655  A
O669       Mg685   2.328       .  S
O671       Mg685   2.132       .  S
O671        C682   1.238       .  S
O672       Mg691   2.122       .  S
O673       Mg685   2.296   1_455  S
Mg674       O690   2.262   1_655  S
O675       Mg691   2.278   1_554  S
H676        C681   1.081       .  S
O677       Mg685   2.127   1_455  S
O677        C680   1.238       .  S
H678        C680   1.081       .  S
H679        C682   1.081       .  S
O684       Mg691   2.299   1_455  S
C687        O692   1.269   1_554  A
C687       C1021   1.498       .  S
O688        C689   1.266       .  A
C689       C1261   1.473       .  S
C694        C829   1.572       .  S
C694        C861   1.607       .  S
C694       C1053   1.579       .  S
C694       C1466   1.605       .  S
O695       Mg697   2.153       .  S
O695       Mg703   2.152       .  S
O695        C730   1.240       .  S
C696        O709   1.237       .  S
C696        O733   1.272       .  A
C696        H735   1.081       .  S
Mg697       O726   2.147       .  S
Mg697       O741   2.296       .  S
Mg697       O737   2.332       .  S
Mg697       O708   2.297       .  S
O698       Mg740   2.143       .  S
O698       Mg723   2.147       .  S
O698        C719   1.240       .  S
O699        C730   1.275       .  A
O699       Mg723   2.312       .  S
C700        O702   1.272       .  A
C700        O714   1.276       .  A
C700       C1341   1.488       .  S
O701        C729   1.272       .  A
O701       Mg703   2.294       .  S
O702       Mg734   2.282       .  S
Mg703       O709   2.152       .  S
Mg703       O717   2.308       .  S
Mg703       O705   2.340       .  S
C704        O742   1.272       .  A
C704        O710   1.277       .  A
C704       C1741   1.489       .  S
O705        C712   1.281       .  A
H706        C719   1.081       .  S
C707        O721   1.237       .  S
C707        O722   1.272       .  A
C707        H732   1.081       .  S
O708        C731   1.273       .  A
O709       Mg723   2.136       .  S
O710       Mg740   2.310       .  S
C711        O724   1.274       .  A
C711        O716   1.280       .  A
C711       C1549   1.490       .  S
C712        O739   1.273       .  A
C712       C1885   1.481       .  S
Mg713       O720   2.136       .  S
Mg713       O721   2.154       .  S
Mg713       O714   2.309       .  S
Mg713       O715   2.310       .  S
Mg713       O742   2.286       .  S
O715        C719   1.275       .  A
O716       Mg723   2.344       .  S
O717        C736   1.278       .  A
O718        C738   1.273       .  A
O718       Mg734   2.298       .  S
O720       Mg734   2.156       .  S
O720        C731   1.239       .  S
O721       Mg740   2.135       .  S
O722       Mg734   2.299       .  S
Mg723       O739   2.272       .  S
O724       Mg740   2.296       .  S
H725        C730   1.081       .  S
O726       Mg734   2.110       .  S
O726        C729   1.239       .  S
H727        C729   1.081       .  S
H728        C731   1.081       .  S
O733       Mg740   2.307       .  S
C736        O741   1.275       .  A
C736       C1613   1.492       .  S
O737        C738   1.278       .  A
C738       C1661   1.516       .  S
C743        C810   1.594       .  S
C743        C845   1.600       .  S
C743        C957   1.593   1_455  S
C743       C2317   1.606   1_455  S
O744       Mg746   2.126       .  S
O744       Mg752   2.146       .  S
O744        C779   1.239       .  S
C745        O758   1.238       .  S
C745        O782   1.271       .  A
C745        H784   1.081       .  S
Mg746       O775   2.146       .  S
Mg746       O790   2.302       .  S
Mg746       O786   2.281       .  S
Mg746       O757   2.298       .  S
O747       Mg789   2.145       .  S
O747       Mg772   2.146       .  S
O747        C768   1.238       .  S
O748        C779   1.272       .  A
O748       Mg772   2.296       .  S
C749        O751   1.272       .  A
C749        O763   1.282       .  A
C749        C813   1.492       .  S
O750        C778   1.272       .  A
O750       Mg752   2.294       .  S
O751       Mg783   2.277       .  S
Mg752       O758   2.115       .  S
Mg752       O766   2.254       .  S
Mg752       O754   2.294       .  S
C753        O791   1.276       .  A
C753        O759   1.278       .  A
C753       C1533   1.488       .  S
O754        C761   1.273       .  A
H755        C768   1.081       .  S
C756        O770   1.239       .  S
C756        O771   1.273       .  A
C756        H781   1.081       .  S
O757        C780   1.272       .  A
O758       Mg772   2.144       .  S
O759       Mg789   2.334       .  S
C760        O773   1.275       .  A
C760        O765   1.277       .  A
C760       C1693   1.479       .  S
C761        O788   1.276       .  A
C761        C794   1.493       .  S
Mg762       O769   2.138       .  S
Mg762       O770   2.141       .  S
Mg762       O763   2.328       .  S
Mg762       O764   2.307       .  S
Mg762       O791   2.292       .  S
O764        C768   1.273       .  A
O765       Mg772   2.317       .  S
O766        C785   1.269       .  A
O767        C787   1.280       .  A
O767       Mg783   2.327       .  S
O769       Mg783   2.155       .  S
O769        C780   1.239       .  S
O770       Mg789   2.153       .  S
O771       Mg783   2.308       .  S
Mg772       O788   2.301       .  S
O773       Mg789   2.281       .  S
H774        C779   1.081       .  S
O775       Mg783   2.122       .  S
O775        C778   1.239       .  S
H776        C778   1.081       .  S
H777        C780   1.081       .  S
O782       Mg789   2.296       .  S
C785        O790   1.278       .  A
C785       C1389   1.483       .  S
O786        C787   1.272       .  A
C787       C1802   1.491       .  S
C792        C797   1.607       .  S
C792        C877   1.600       .  S
C792        C909   1.596       .  S
C792       C2269   1.602       .  S
C793        H800   1.085       .  S
C793        C794   1.406       .  A
C793        C798   1.426       .  A
C794        C795   1.407       .  A
C795        C802   1.526       .  S
C795        C796   1.393       .  A
C796        H801   1.071       .  S
C796        C797   1.428       .  A
C797        C798   1.451       .  A
C798        C799   1.529       .  S
C799        F803   1.386       .  S
C799        F804   1.369       .  S
C799        F805   1.382       .  S
C802        F806   1.384       .  S
C802        F807   1.382       .  S
C802        F808   1.386       .  S
C809        H816   1.076       .  S
C809        C810   1.425       .  A
C809        C814   1.420       .  A
C810        C811   1.455       .  A
C811        C818   1.529       .  S
C811        C812   1.403       .  A
C812        H817   1.083       .  S
C812        C813   1.386       .  A
C813        C814   1.415       .  A
C814        C815   1.516       .  S
C815        F819   1.385       .  S
C815        F820   1.383       .  S
C815        F821   1.383       .  S
C818        F822   1.379       .  S
C818        F823   1.367       .  S
C818        F824   1.386       .  S
C825        H832   1.085       .  S
C825        C826   1.390       .  A
C825        C830   1.400       .  A
C826        C827   1.417       .  A
C827        C834   1.518       .  S
C827        C828   1.415       .  A
C828        H833   1.076       .  S
C828        C829   1.418       .  A
C829        C830   1.455       .  A
C830        C831   1.536       .  S
C831        F835   1.387       .  S
C831        F836   1.383       .  S
C831        F837   1.370       .  S
C834        F838   1.384       .  S
C834        F839   1.383       .  S
C834        F840   1.384       .  S
C841        H848   1.086       .  S
C841        C842   1.385       .  A
C841        C846   1.402       .  A
C842        C843   1.408   1_455  A
C843        C850   1.520       .  S
C843        C844   1.409       .  A
C844        H849   1.067       .  S
C844        C845   1.427   1_655  A
C845        C846   1.459       .  A
C846        C847   1.535       .  S
C847        F851   1.388       .  S
C847        F852   1.370       .  S
C847        F853   1.380       .  S
C850        F854   1.383       .  S
C850        F855   1.383       .  S
C850        F856   1.385       .  S
C857        H864   1.083       .  S
C857        C858   1.380       .  A
C857        C862   1.409       .  A
C858        C859   1.400       .  A
C859        C866   1.516       .  S
C859        C860   1.411       .  A
C860        H865   1.066       .  S
C860        C861   1.424       .  A
C861        C862   1.475       .  A
C862        C863   1.544       .  S
C863        F867   1.387       .  S
C863        F868   1.372       .  S
C863        F869   1.373       .  S
C866        F870   1.383       .  S
C866        F871   1.383       .  S
C866        F872   1.384       .  S
C873        H880   1.085       .  S
C873        C874   1.400       .  A
C873        C878   1.421       .  A
C874        C875   1.394       .  A
C875        C882   1.523       .  S
C875        C876   1.391       .  A
C876        H881   1.072       .  S
C876        C877   1.430       .  A
C877        C878   1.453       .  A
C878        C879   1.532       .  S
C879        F883   1.385       .  S
C879        F884   1.368       .  S
C879        F885   1.383       .  S
C882        F886   1.382       .  S
C882        F887   1.384       .  S
C882        F888   1.385       .  S
C889        H896   1.085       .  S
C889        C890   1.384       .  A
C889        C894   1.393       .  A
C890        C891   1.413       .  A
C891        C898   1.517       .  S
C891        C892   1.417       .  A
C892        H897   1.077       .  S
C892        C893   1.419       .  A
C893        C894   1.465       .  A
C894        C895   1.544       .  S
C895        F899   1.387       .  S
C895        F900   1.382       .  S
C895        F901   1.372       .  S
C898        F902   1.384       .  S
C898        F903   1.382       .  S
C898        F904   1.384       .  S
C905        H912   1.083       .  S
C905        C906   1.397       .  A
C905        C910   1.418       .  A
C906        C907   1.402       .  A
C907        C914   1.523       .  S
C907        C908   1.402       .  A
C908        H913   1.076       .  S
C908        C909   1.434       .  A
C909        C910   1.451       .  A
C910        C911   1.526       .  S
C911        F915   1.385       .  S
C911        F916   1.380       .  S
C911        F917   1.372       .  S
C914        F918   1.384       .  S
C914        F919   1.382       .  S
C914        F920   1.384       .  S
C921        H928   1.085       .  S
C921        C922   1.401       .  A
C921        C926   1.421       .  A
C922        C923   1.393       .  A
C923        C930   1.529       .  S
C923        C924   1.394       .  A
C924        H929   1.066       .  S
C924        C925   1.443       .  A
C925        C926   1.448       .  A
C926        C927   1.525       .  S
C927        F931   1.384       .  S
C927        F932   1.371       .  S
C927        F933   1.384       .  S
C930        F934   1.383       .  S
C930        F935   1.384       .  S
C930        F936   1.385       .  S
C937        H944   1.085       .  S
C937        C938   1.398       .  A
C937        C942   1.422       .  A
C938        C939   1.398       .  A
C939        C946   1.520       .  S
C939        C940   1.400       .  A
C940        H945   1.081       .  S
C940        C941   1.437       .  A
C941        C942   1.457       .  A
C942        C943   1.532       .  S
C943        F947   1.385       .  S
C943        F948   1.366       .  S
C943        F949   1.383       .  S
C946        F950   1.384       .  S
C946        F951   1.383       .  S
C946        F952   1.385       .  S
C953        H960   1.085       .  S
C953        C954   1.401       .  A
C953        C958   1.421   1_655  A
C954        C955   1.398       .  A
C955        C962   1.525       .  S
C955        C956   1.395       .  A
C956        H961   1.079       .  S
C956        C957   1.435       .  A
C957        C958   1.456   1_655  A
C958        C959   1.527       .  S
C959        F963   1.385   1_455  S
C959        F964   1.364       .  S
C959        F965   1.384       .  S
C962        F966   1.383       .  S
C962        F967   1.383   1_655  S
C962        F968   1.384       .  S
C969        H976   1.085       .  S
C969        C970   1.402       .  A
C969        C974   1.419       .  A
C970        C971   1.413       .  A
C971        C978   1.531       .  S
C971        C972   1.398       .  A
C972        H977   1.058       .  S
C972        C973   1.425       .  A
C973        C974   1.448       .  A
C974        C975   1.519       .  S
C975        F979   1.382       .  S
C975        F980   1.372       .  S
C975        F981   1.384       .  S
C978        F982   1.383       .  S
C978        F983   1.382       .  S
C978        F984   1.386       .  S
C985        H992   1.066       .  S
C985        C986   1.436       .  A
C985        C990   1.395       .  A
C986        C987   1.455   1_565  A
C987        C994   1.519       .  S
C987        C988   1.425       .  A
C988        H993   1.085       .  S
C988        C989   1.401       .  A
C989        C990   1.403   1_545  A
C990        C991   1.523       .  S
C991        F995   1.387       .  S
C991        F996   1.382       .  S
C991        F997   1.380       .  S
C994        F998   1.384       .  S
C994        F999   1.364       .  S
C994       F1000   1.383       .  S
C1001      H1008   1.076       .  S
C1001      C1002   1.423       .  A
C1001      C1006   1.411       .  A
C1002      C1003   1.462       .  A
C1003      C1010   1.536       .  S
C1003      C1004   1.406       .  A
C1004      H1009   1.084       .  S
C1004      C1005   1.384       .  A
C1005      C1006   1.407       .  A
C1006      C1007   1.517       .  S
C1007      F1011   1.384       .  S
C1007      F1012   1.383       .  S
C1007      F1013   1.383   1_565  S
C1010      F1014   1.381       .  S
C1010      F1015   1.369       .  S
C1010      F1016   1.387       .  S
C1017      H1024   1.068       .  S
C1017      C1018   1.424       .  A
C1017      C1022   1.401       .  A
C1018      C1019   1.451       .  A
C1019      C1026   1.526       .  S
C1019      C1020   1.417   1_556  A
C1020      H1025   1.085       .  S
C1020      C1021   1.403       .  A
C1021      C1022   1.415   1_554  A
C1022      C1023   1.530       .  S
C1023      F1027   1.386       .  S
C1023      F1028   1.383       .  S
C1023      F1029   1.383       .  S
C1026      F1030   1.364       .  S
C1026      F1031   1.381   1_556  S
C1026      F1032   1.386       .  S
C1033      H1040   1.072       .  S
C1033      C1034   1.434       .  A
C1033      C1038   1.408       .  A
C1034      C1035   1.452   1_556  A
C1035      C1042   1.525       .  S
C1035      C1036   1.417       .  A
C1036      H1041   1.085       .  S
C1036      C1037   1.400   1_554  A
C1037      C1038   1.406       .  A
C1038      C1039   1.525       .  S
C1039      F1043   1.385       .  S
C1039      F1044   1.384       .  S
C1039      F1045   1.379       .  S
C1042      F1046   1.381       .  S
C1042      F1047   1.372       .  S
C1042      F1048   1.383       .  S
C1049      H1056   1.086       .  S
C1049      C1050   1.381       .  A
C1049      C1054   1.400       .  A
C1050      C1051   1.408       .  A
C1051      C1058   1.515       .  S
C1051      C1052   1.416       .  A
C1052      H1057   1.076       .  S
C1052      C1053   1.422       .  A
C1053      C1054   1.460       .  A
C1054      C1055   1.535       .  S
C1055      F1059   1.382       .  S
C1055      F1060   1.371       .  S
C1055      F1061   1.387       .  S
C1058      F1062   1.383       .  S
C1058      F1063   1.383       .  S
C1058      F1064   1.384       .  S
C1065      H1072   1.083       .  S
C1065      C1066   1.390       .  A
C1065      C1070   1.406       .  A
C1066      C1067   1.411       .  A
C1067      C1074   1.517       .  S
C1067      C1068   1.418       .  A
C1068      H1073   1.076       .  S
C1068      C1069   1.422       .  A
C1069      C1070   1.462       .  A
C1070      C1071   1.540       .  S
C1071      F1075   1.380       .  S
C1071      F1076   1.386       .  S
C1071      F1077   1.371       .  S
C1074      F1078   1.383       .  S
C1074      F1079   1.384       .  S
C1074      F1080   1.384       .  S
C1081      H1088   1.084       .  S
C1081      C1082   1.403       .  A
C1081      C1086   1.424       .  A
C1082      C1083   1.407       .  A
C1083      C1090   1.526       .  S
C1083      C1084   1.392       .  A
C1084      H1089   1.063       .  S
C1084      C1085   1.428       .  A
C1085      C1086   1.449       .  A
C1086      C1087   1.520       .  S
C1087      F1091   1.384       .  S
C1087      F1092   1.372       .  S
C1087      F1093   1.382       .  S
C1090      F1094   1.379       .  S
C1090      F1095   1.382       .  S
C1090      F1096   1.386       .  S
C1097      H1104   1.080       .  S
C1097      C1098   1.391       .  A
C1097      C1102   1.416       .  A
C1098      C1099   1.410       .  A
C1099      C1106   1.521       .  S
C1099      C1100   1.409       .  A
C1100      H1105   1.079       .  S
C1100      C1101   1.426       .  A
C1101      C1102   1.473       .  A
C1102      C1103   1.549       .  S
C1103      F1107   1.371       .  S
C1103      F1108   1.386       .  S
C1103      F1109   1.373       .  S
C1106      F1110   1.383       .  S
C1106      F1111   1.383       .  S
C1106      F1112   1.385       .  S
C1113      H1120   1.081       .  S
C1113      C1114   1.421       .  A
C1113      C1118   1.422       .  A
C1114      C1115   1.427       .  A
C1115      C1122   1.524       .  S
C1115      C1116   1.401       .  A
C1116      H1121   1.085       .  S
C1116      C1117   1.405       .  A
C1117      C1118   1.429       .  A
C1118      C1119   1.517       .  S
C1119      F1123   1.385       .  S
C1119      F1124   1.383       .  S
C1119      F1125   1.382       .  S
C1122      F1126   1.377   1_554  S
C1122      F1127   1.381       .  S
C1122      F1128   1.387       .  S
C1129      H1136   1.077       .  S
C1129      C1130   1.422   1_655  A
C1129      C1134   1.401       .  A
C1130      C1131   1.446       .  A
C1131      C1138   1.525       .  S
C1131      C1132   1.414   1_455  A
C1132      H1137   1.084       .  S
C1132      C1133   1.400       .  A
C1133      C1134   1.408       .  A
C1134      C1135   1.522       .  S
C1135      F1139   1.385       .  S
C1135      F1140   1.383   1_655  S
C1135      F1141   1.383       .  S
C1138      F1142   1.386       .  S
C1138      F1143   1.373       .  S
C1138      F1144   1.379   1_455  S
C1145      H1152   1.085       .  S
C1145      C1146   1.386   1_455  A
C1145      C1150   1.406       .  A
C1146      C1147   1.403       .  A
C1147      C1154   1.518       .  S
C1147      C1148   1.407       .  A
C1148      H1153   1.069       .  S
C1148      C1149   1.425   1_655  A
C1149      C1150   1.454       .  A
C1150      C1151   1.526       .  S
C1151      F1155   1.387       .  S
C1151      F1156   1.376       .  S
C1151      F1157   1.373       .  S
C1154      F1158   1.384       .  S
C1154      F1159   1.383       .  S
C1154      F1160   1.385       .  S
C1161      H1168   1.077       .  S
C1161      C1162   1.429       .  A
C1161      C1166   1.407       .  A
C1162      C1163   1.450       .  A
C1163      C1170   1.524       .  S
C1163      C1164   1.425       .  A
C1164      H1169   1.084       .  S
C1164      C1165   1.403       .  A
C1165      C1166   1.402       .  A
C1166      C1167   1.519       .  S
C1167      F1171   1.385       .  S
C1167      F1172   1.383       .  S
C1167      F1173   1.383       .  S
C1170      F1174   1.376   1_455  S
C1170      F1175   1.382       .  S
C1170      F1176   1.386       .  S
C1177      H1184   1.082       .  S
C1177      C1178   1.419       .  A
C1177      C1182   1.421       .  A
C1178      C1179   1.428   1_565  A
C1179      C1186   1.526       .  S
C1179      C1180   1.399       .  A
C1180      H1185   1.085       .  S
C1180      C1181   1.400   1_545  A
C1181      C1182   1.426       .  A
C1182      C1183   1.514       .  S
C1183      F1187   1.384       .  S
C1183      F1188   1.383       .  S
C1183      F1189   1.381       .  S
C1186      F1190   1.382       .  S
C1186      F1191   1.381       .  S
C1186      F1192   1.387       .  S
C1193      H1200   1.076       .  S
C1193      C1194   1.418   1_565  A
C1193      C1198   1.408       .  A
C1194      C1195   1.454       .  A
C1195      C1202   1.527       .  S
C1195      C1196   1.401       .  A
C1196      H1201   1.085       .  S
C1196      C1197   1.384       .  A
C1197      C1198   1.409   1_545  A
C1198      C1199   1.517       .  S
C1199      F1203   1.385       .  S
C1199      F1204   1.383       .  S
C1199      F1205   1.383   1_565  S
C1202      F1206   1.369       .  S
C1202      F1207   1.382       .  S
C1202      F1208   1.386       .  S
C1209      H1216   1.066       .  S
C1209      C1210   1.429       .  A
C1209      C1214   1.398       .  A
C1210      C1211   1.456       .  A
C1211      C1218   1.529       .  S
C1211      C1212   1.422       .  A
C1212      H1217   1.085       .  S
C1212      C1213   1.403       .  A
C1213      C1214   1.405       .  A
C1214      C1215   1.526       .  S
C1215      F1219   1.385       .  S
C1215      F1220   1.381       .  S
C1215      F1221   1.384       .  S
C1218      F1222   1.362   1_545  S
C1218      F1223   1.383       .  S
C1218      F1224   1.387       .  S
C1225      H1232   1.086       .  S
C1225      C1226   1.391       .  A
C1225      C1230   1.400       .  A
C1226      C1227   1.415       .  A
C1227      C1234   1.515       .  S
C1227      C1228   1.416       .  A
C1228      H1233   1.081       .  S
C1228      C1229   1.423       .  A
C1229      C1230   1.461       .  A
C1230      C1231   1.544       .  S
C1231      F1235   1.380       .  S
C1231      F1236   1.368       .  S
C1231      F1237   1.389       .  S
C1234      F1238   1.382       .  S
C1234      F1239   1.383       .  S
C1234      F1240   1.385       .  S
C1241      H1248   1.086       .  S
C1241      C1242   1.383       .  A
C1241      C1246   1.392       .  A
C1242      C1243   1.413       .  A
C1243      C1250   1.518       .  S
C1243      C1244   1.408       .  A
C1244      H1249   1.079       .  S
C1244      C1245   1.414       .  A
C1245      C1246   1.459       .  A
C1246      C1247   1.538       .  S
C1247      F1251   1.382       .  S
C1247      F1252   1.371       .  S
C1247      F1253   1.387       .  S
C1250      F1254   1.383       .  S
C1250      F1255   1.383       .  S
C1250      F1256   1.384       .  S
C1257      H1264   1.080       .  S
C1257      C1258   1.438       .  A
C1257      C1262   1.393       .  A
C1258      C1259   1.452       .  A
C1259      C1266   1.533       .  S
C1259      C1260   1.415       .  A
C1260      H1265   1.086       .  S
C1260      C1261   1.400       .  A
C1261      C1262   1.396       .  A
C1262      C1263   1.520       .  S
C1263      F1267   1.385       .  S
C1263      F1268   1.383       .  S
C1263      F1269   1.380       .  S
C1266      F1270   1.386       .  S
C1266      F1271   1.364       .  S
C1266      F1272   1.384   1_455  S
C1273      H1280   1.064       .  S
C1273      C1274   1.425   1_455  A
C1273      C1278   1.399       .  A
C1274      C1275   1.450       .  A
C1275      C1282   1.521       .  S
C1275      C1276   1.423       .  A
C1276      H1281   1.084       .  S
C1276      C1277   1.404       .  A
C1277      C1278   1.414   1_655  A
C1278      C1279   1.528       .  S
C1279      F1283   1.386       .  S
C1279      F1284   1.382       .  S
C1279      F1285   1.381       .  S
C1282      F1286   1.382       .  S
C1282      F1287   1.372       .  S
C1282      F1288   1.385       .  S
C1289      H1296   1.075       .  S
C1289      C1290   1.424       .  A
C1289      C1294   1.414       .  A
C1290      C1291   1.458       .  A
C1291      C1298   1.538       .  S
C1291      C1292   1.402       .  A
C1292      H1297   1.082       .  S
C1292      C1293   1.392       .  A
C1293      C1294   1.412       .  A
C1294      C1295   1.519       .  S
C1295      F1299   1.385       .  S
C1295      F1300   1.383       .  S
C1295      F1301   1.383       .  S
C1298      F1302   1.386       .  S
C1298      F1303   1.368       .  S
C1298      F1304   1.381       .  S
C1305      H1312   1.083       .  S
C1305      C1306   1.391       .  A
C1305      C1310   1.407       .  A
C1306      C1307   1.412       .  A
C1307      C1314   1.519       .  S
C1307      C1308   1.412       .  A
C1308      H1313   1.077       .  S
C1308      C1309   1.420       .  A
C1309      C1310   1.454       .  A
C1310      C1311   1.532       .  S
C1311      F1315   1.386       .  S
C1311      F1316   1.372       .  S
C1311      F1317   1.376       .  S
C1314      F1318   1.383       .  S
C1314      F1319   1.383       .  S
C1314      F1320   1.384       .  S
C1321      H1328   1.085       .  S
C1321      C1322   1.400       .  A
C1321      C1326   1.425       .  A
C1322      C1323   1.401       .  A
C1323      C1330   1.525       .  S
C1323      C1324   1.407       .  A
C1324      H1329   1.065       .  S
C1324      C1325   1.437       .  A
C1325      C1326   1.456       .  A
C1326      C1327   1.527       .  S
C1327      F1331   1.384       .  S
C1327      F1332   1.384       .  S
C1327      F1333   1.370       .  S
C1330      F1334   1.384       .  S
C1330      F1335   1.382       .  S
C1330      F1336   1.385       .  S
C1337      H1344   1.061       .  S
C1337      C1338   1.431       .  A
C1337      C1342   1.395       .  A
C1338      C1339   1.450       .  A
C1339      C1346   1.523       .  S
C1339      C1340   1.421       .  A
C1340      H1345   1.085       .  S
C1340      C1341   1.401       .  A
C1341      C1342   1.406       .  A
C1342      C1343   1.528       .  S
C1343      F1347   1.386       .  S
C1343      F1348   1.380       .  S
C1343      F1349   1.382       .  S
C1346      F1350   1.370       .  S
C1346      F1351   1.383       .  S
C1346      F1352   1.384       .  S
C1353      H1360   1.078       .  S
C1353      C1354   1.419       .  A
C1353      C1358   1.405       .  A
C1354      C1355   1.463       .  A
C1355      C1362   1.542       .  S
C1355      C1356   1.399       .  A
C1356      H1361   1.084       .  S
C1356      C1357   1.382       .  A
C1357      C1358   1.403       .  A
C1358      C1359   1.516       .  S
C1359      F1363   1.384       .  S
C1359      F1364   1.384       .  S
C1359      F1365   1.383       .  S
C1362      F1366   1.375       .  S
C1362      F1367   1.386       .  S
C1362      F1368   1.381       .  S
C1369      H1376   1.078       .  S
C1369      C1370   1.412       .  A
C1369      C1374   1.409       .  A
C1370      C1371   1.464       .  A
C1371      C1378   1.543       .  S
C1371      C1372   1.400       .  A
C1372      H1377   1.081       .  S
C1372      C1373   1.389       .  A
C1373      C1374   1.420       .  A
C1374      C1375   1.520       .  S
C1375      F1379   1.385       .  S
C1375      F1380   1.383       .  S
C1375      F1381   1.381       .  S
C1378      F1382   1.379       .  S
C1378      F1383   1.375       .  S
C1378      F1384   1.386       .  S
C1385      H1392   1.078       .  S
C1385      C1386   1.415       .  A
C1385      C1390   1.412       .  A
C1386      C1387   1.456       .  A
C1387      C1394   1.534       .  S
C1387      C1388   1.401       .  A
C1388      H1393   1.083       .  S
C1388      C1389   1.388       .  A
C1389      C1390   1.416       .  A
C1390      C1391   1.518       .  S
C1391      F1395   1.385       .  S
C1391      F1396   1.383       .  S
C1391      F1397   1.383       .  S
C1394      F1398   1.386       .  S
C1394      F1399   1.366       .  S
C1394      F1400   1.381       .  S
C1401      H1408   1.077       .  S
C1401      C1402   1.427       .  A
C1401      C1406   1.411       .  A
C1402      C1403   1.459   1_554  A
C1403      C1410   1.541       .  S
C1403      C1404   1.394       .  A
C1404      H1409   1.087       .  S
C1404      C1405   1.388   1_556  A
C1405      C1406   1.410       .  A
C1406      C1407   1.515       .  S
C1407      F1411   1.385       .  S
C1407      F1412   1.383       .  S
C1407      F1413   1.382       .  S
C1410      F1414   1.382       .  S
C1410      F1415   1.367       .  S
C1410      F1416   1.389       .  S
C1417      H1424   1.082       .  S
C1417      C1418   1.398       .  A
C1417      C1422   1.420   1_556  A
C1418      C1419   1.399       .  A
C1419      C1426   1.523       .  S
C1419      C1420   1.392       .  A
C1420      H1425   1.080       .  S
C1420      C1421   1.434       .  A
C1421      C1422   1.451   1_556  A
C1422      C1423   1.530       .  S
C1423      F1427   1.386       .  S
C1423      F1428   1.375       .  S
C1423      F1429   1.379       .  S
C1426      F1430   1.383       .  S
C1426      F1431   1.380       .  S
C1426      F1432   1.385       .  S
C1433      H1440   1.068       .  S
C1433      C1434   1.440       .  A
C1433      C1438   1.405       .  A
C1434      C1435   1.464       .  A
C1435      C1442   1.539       .  S
C1435      C1436   1.428       .  A
C1436      H1441   1.082       .  S
C1436      C1437   1.396       .  A
C1437      C1438   1.398       .  A
C1438      C1439   1.525       .  S
C1439      F1443   1.385       .  S
C1439      F1444   1.383       .  S
C1439      F1445   1.383       .  S
C1442      F1446   1.374       .  S
C1442      F1447   1.371       .  S
C1442      F1448   1.385       .  S
C1449      H1456   1.082       .  S
C1449      C1450   1.403       .  A
C1449      C1454   1.421       .  A
C1450      C1451   1.407       .  A
C1451      C1458   1.526       .  S
C1451      C1452   1.394       .  A
C1452      H1457   1.079       .  S
C1452      C1453   1.436       .  A
C1453      C1454   1.453       .  A
C1454      C1455   1.534       .  S
C1455      F1459   1.386       .  S
C1455      F1460   1.380       .  S
C1455      F1461   1.375   1_565  S
C1458      F1462   1.384       .  S
C1458      F1463   1.383       .  S
C1458      F1464   1.385       .  S
C1465      H1472   1.074       .  S
C1465      C1466   1.424       .  A
C1465      C1470   1.422       .  A
C1466      C1467   1.470       .  A
C1467      C1474   1.551       .  S
C1467      C1468   1.401       .  A
C1468      H1473   1.082       .  S
C1468      C1469   1.390       .  A
C1469      C1470   1.417       .  A
C1470      C1471   1.517       .  S
C1471      F1475   1.385       .  S
C1471      F1476   1.382       .  S
C1471      F1477   1.383       .  S
C1474      F1478   1.369       .  S
C1474      F1479   1.375       .  S
C1474      F1480   1.387       .  S
C1481      H1488   1.072       .  S
C1481      C1482   1.446       .  A
C1481      C1486   1.407       .  A
C1482      C1483   1.451       .  A
C1483      C1490   1.515       .  S
C1483      C1484   1.425       .  A
C1484      H1489   1.085       .  S
C1484      C1485   1.399       .  A
C1485      C1486   1.398       .  A
C1486      C1487   1.524       .  S
C1487      F1491   1.385       .  S
C1487      F1492   1.382       .  S
C1487      F1493   1.383       .  S
C1490      F1494   1.384       .  S
C1490      F1495   1.359   1_455  S
C1490      F1496   1.384       .  S
C1497      H1504   1.086       .  S
C1497      C1498   1.388       .  A
C1497      C1502   1.397       .  A
C1498      C1499   1.414       .  A
C1499      C1506   1.517       .  S
C1499      C1500   1.417   1_655  A
C1500      H1505   1.076       .  S
C1500      C1501   1.422   1_455  A
C1501      C1502   1.454       .  A
C1502      C1503   1.535       .  S
C1503      F1507   1.383       .  S
C1503      F1508   1.370   1_655  S
C1503      F1509   1.387   1_655  S
C1506      F1510   1.383   1_554  S
C1506      F1511   1.383   1_655  S
C1506      F1512   1.384   1_655  S
C1513      H1520   1.084       .  S
C1513      C1514   1.384   1_655  A
C1513      C1518   1.405       .  A
C1514      C1515   1.406       .  A
C1515      C1522   1.515       .  S
C1515      C1516   1.413       .  A
C1516      H1521   1.079       .  S
C1516      C1517   1.428       .  A
C1517      C1518   1.478   1_455  A
C1518      C1519   1.556       .  S
C1519      F1523   1.385       .  S
C1519      F1524   1.365       .  S
C1519      F1525   1.375       .  S
C1522      F1526   1.383       .  S
C1522      F1527   1.381       .  S
C1522      F1528   1.385       .  S
C1529      H1536   1.068       .  S
C1529      C1530   1.418       .  A
C1529      C1534   1.412       .  A
C1530      C1531   1.453       .  A
C1531      C1538   1.527       .  S
C1531      C1532   1.414       .  A
C1532      H1537   1.086       .  S
C1532      C1533   1.394       .  A
C1533      C1534   1.411       .  A
C1534      C1535   1.518       .  S
C1535      F1539   1.384       .  S
C1535      F1540   1.382       .  S
C1535      F1541   1.383       .  S
C1538      F1542   1.383       .  S
C1538      F1543   1.369       .  S
C1538      F1544   1.386       .  S
C1545      H1552   1.073       .  S
C1545      C1546   1.426       .  A
C1545      C1550   1.414       .  A
C1546      C1547   1.452       .  A
C1547      C1554   1.531       .  S
C1547      C1548   1.415       .  A
C1548      H1553   1.083       .  S
C1548      C1549   1.392       .  A
C1549      C1550   1.409       .  A
C1550      C1551   1.515       .  S
C1551      F1555   1.385       .  S
C1551      F1556   1.383       .  S
C1551      F1557   1.380       .  S
C1554      F1558   1.385       .  S
C1554      F1559   1.373       .  S
C1554      F1560   1.380       .  S
C1561      H1568   1.069       .  S
C1561      C1562   1.428       .  A
C1561      C1566   1.406       .  A
C1562      C1563   1.442       .  A
C1563      C1570   1.528       .  S
C1563      C1564   1.417       .  A
C1564      H1569   1.083       .  S
C1564      C1565   1.399       .  A
C1565      C1566   1.405       .  A
C1566      C1567   1.520       .  S
C1567      F1571   1.384       .  S
C1567      F1572   1.383       .  S
C1567      F1573   1.383       .  S
C1570      F1574   1.375       .  S
C1570      F1575   1.381       .  S
C1570      F1576   1.385       .  S
C1577      H1584   1.073       .  S
C1577      C1578   1.417       .  A
C1577      C1582   1.412       .  A
C1578      C1579   1.444       .  A
C1579      C1586   1.523       .  S
C1579      C1580   1.406       .  A
C1580      H1585   1.086       .  S
C1580      C1581   1.392       .  A
C1581      C1582   1.412       .  A
C1582      C1583   1.517       .  S
C1583      F1587   1.385       .  S
C1583      F1588   1.382       .  S
C1583      F1589   1.383       .  S
C1586      F1590   1.381       .  S
C1586      F1591   1.367       .  S
C1586      F1592   1.385       .  S
C1593      H1600   1.084       .  S
C1593      C1594   1.398       .  A
C1593      C1598   1.421       .  A
C1594      C1595   1.405       .  A
C1595      C1602   1.521       .  S
C1595      C1596   1.401       .  A
C1596      H1601   1.059       .  S
C1596      C1597   1.413       .  A
C1597      C1598   1.457       .  A
C1598      C1599   1.533       .  S
C1599      F1603   1.386       .  S
C1599      F1604   1.376       .  S
C1599      F1605   1.377       .  S
C1602      F1606   1.381       .  S
C1602      F1607   1.381       .  S
C1602      F1608   1.384       .  S
C1609      H1616   1.076       .  S
C1609      C1610   1.420       .  A
C1609      C1614   1.401       .  A
C1610      C1611   1.452       .  A
C1611      C1618   1.529       .  S
C1611      C1612   1.415       .  A
C1612      H1617   1.084       .  S
C1612      C1613   1.399       .  A
C1613      C1614   1.414       .  A
C1614      C1615   1.522       .  S
C1615      F1619   1.385       .  S
C1615      F1620   1.382       .  S
C1615      F1621   1.382       .  S
C1618      F1622   1.383       .  S
C1618      F1623   1.375       .  S
C1618      F1624   1.383       .  S
C1625      H1632   1.070       .  S
C1625      C1626   1.425       .  A
C1625      C1630   1.404       .  A
C1626      C1627   1.452       .  A
C1627      C1634   1.529       .  S
C1627      C1628   1.420       .  A
C1628      H1633   1.081       .  S
C1628      C1629   1.402       .  A
C1629      C1630   1.420       .  A
C1630      C1631   1.530       .  S
C1631      F1635   1.385       .  S
C1631      F1636   1.384       .  S
C1631      F1637   1.383       .  S
C1634      F1638   1.375       .  S
C1634      F1639   1.377       .  S
C1634      F1640   1.386       .  S
C1641      H1648   1.077       .  S
C1641      C1642   1.429       .  A
C1641      C1646   1.414       .  A
C1642      C1643   1.482       .  A
C1643      C1650   1.550       .  S
C1643      C1644   1.414       .  A
C1644      H1649   1.084       .  S
C1644      C1645   1.380       .  A
C1645      C1646   1.405       .  A
C1646      C1647   1.518       .  S
C1647      F1651   1.384       .  S
C1647      F1652   1.383       .  S
C1647      F1653   1.383       .  S
C1650      F1654   1.377       .  S
C1650      F1655   1.368       .  S
C1650      F1656   1.388       .  S
C1657      H1664   1.071       .  S
C1657      C1658   1.435       .  A
C1657      C1662   1.403       .  A
C1658      C1659   1.446       .  A
C1659      C1666   1.515       .  S
C1659      C1660   1.427       .  A
C1660      H1665   1.084       .  S
C1660      C1661   1.409       .  A
C1661      C1662   1.419       .  A
C1662      C1663   1.533       .  S
C1663      F1667   1.386       .  S
C1663      F1668   1.384       .  S
C1663      F1669   1.384       .  S
C1666      F1670   1.363       .  S
C1666      F1671   1.384       .  S
C1666      F1672   1.384       .  S
C1673      H1680   1.072       .  S
C1673      C1674   1.421       .  A
C1673      C1678   1.417       .  A
C1674      C1675   1.459       .  A
C1675      C1682   1.539       .  S
C1675      C1676   1.408       .  A
C1676      H1681   1.083       .  S
C1676      C1677   1.387       .  A
C1677      C1678   1.413       .  A
C1678      C1679   1.516       .  S
C1679      F1683   1.384       .  S
C1679      F1684   1.383       .  S
C1679      F1685   1.383       .  S
C1682      F1686   1.386       .  S
C1682      F1687   1.378       .  S
C1682      F1688   1.380       .  S
C1689      H1696   1.074       .  S
C1689      C1690   1.425       .  A
C1689      C1694   1.407       .  A
C1690      C1691   1.469       .  A
C1691      C1698   1.536       .  S
C1691      C1692   1.414       .  A
C1692      H1697   1.086       .  S
C1692      C1693   1.386       .  A
C1693      C1694   1.403       .  A
C1694      C1695   1.519       .  S
C1695      F1699   1.384       .  S
C1695      F1700   1.383       .  S
C1695      F1701   1.383       .  S
C1698      F1702   1.379       .  S
C1698      F1703   1.364       .  S
C1698      F1704   1.388       .  S
C1705      H1712   1.069       .  S
C1705      C1706   1.425       .  A
C1705      C1710   1.397       .  A
C1706      C1707   1.455       .  A
C1707      C1714   1.530       .  S
C1707      C1708   1.428       .  A
C1708      H1713   1.082       .  S
C1708      C1709   1.401       .  A
C1709      C1710   1.402       .  A
C1710      C1711   1.523       .  S
C1711      F1715   1.385       .  S
C1711      F1716   1.380       .  S
C1711      F1717   1.384       .  S
C1714      F1718   1.377       .  S
C1714      F1719   1.379       .  S
C1714      F1720   1.385       .  S
C1721      H1728   1.079       .  S
C1721      C1722   1.431       .  A
C1721      C1726   1.397       .  A
C1722      C1723   1.452       .  A
C1723      C1730   1.523       .  S
C1723      C1724   1.429       .  A
C1724      H1729   1.082       .  S
C1724      C1725   1.403       .  A
C1725      C1726   1.407       .  A
C1726      C1727   1.524       .  S
C1727      F1731   1.385       .  S
C1727      F1732   1.381       .  S
C1727      F1733   1.382       .  S
C1730      F1734   1.377       .  S
C1730      F1735   1.367       .  S
C1730      F1736   1.385       .  S
C1737      H1744   1.075       .  S
C1737      C1738   1.425       .  A
C1737      C1742   1.395       .  A
C1738      C1739   1.453       .  A
C1739      C1746   1.529       .  S
C1739      C1740   1.425       .  A
C1740      H1745   1.084       .  S
C1740      C1741   1.404       .  A
C1741      C1742   1.403       .  A
C1742      C1743   1.521       .  S
C1743      F1747   1.385       .  S
C1743      F1748   1.385       .  S
C1743      F1749   1.382       .  S
C1746      F1750   1.368       .  S
C1746      F1751   1.384       .  S
C1746      F1752   1.384       .  S
C1753      H1760   1.075       .  S
C1753      C1754   1.422       .  A
C1753      C1758   1.420       .  A
C1754      C1755   1.458       .  A
C1755      C1762   1.536       .  S
C1755      C1756   1.398       .  A
C1756      H1761   1.086       .  S
C1756      C1757   1.385       .  A
C1757      C1758   1.413       .  A
C1758      C1759   1.513       .  S
C1759      F1763   1.385       .  S
C1759      F1764   1.383       .  S
C1759      F1765   1.382       .  S
C1762      F1766   1.387       .  S
C1762      F1767   1.368       .  S
C1762      F1768   1.383       .  S
C1769      H1776   1.076       .  S
C1769      C1770   1.421       .  A
C1769      C1774   1.418       .  A
C1770      C1771   1.462       .  A
C1771      C1778   1.539       .  S
C1771      C1772   1.401   1_554  A
C1772      H1777   1.083       .  S
C1772      C1773   1.383       .  A
C1773      C1774   1.413   1_556  A
C1774      C1775   1.517       .  S
C1775      F1779   1.384       .  S
C1775      F1780   1.382   1_544  S
C1775      F1781   1.384       .  S
C1778      F1782   1.374   1_554  S
C1778      F1783   1.380       .  S
C1778      F1784   1.386   1_554  S
C1785      H1792   1.084       .  S
C1785      C1786   1.377       .  A
C1785      C1790   1.406       .  A
C1786      C1787   1.401   1_554  A
C1787      C1794   1.516       .  S
C1787      C1788   1.412       .  A
C1788      H1793   1.051       .  S
C1788      C1789   1.419   1_556  A
C1789      C1790   1.476       .  A
C1790      C1791   1.546       .  S
C1791      F1795   1.374       .  S
C1791      F1796   1.371       .  S
C1791      F1797   1.387       .  S
C1794      F1798   1.384   1_545  S
C1794      F1799   1.383       .  S
C1794      F1800   1.384       .  S
C1801      H1808   1.084       .  S
C1801      C1802   1.390       .  A
C1801      C1806   1.408       .  A
C1802      C1803   1.415       .  A
C1803      C1810   1.518       .  S
C1803      C1804   1.416       .  A
C1804      H1809   1.077       .  S
C1804      C1805   1.422       .  A
C1805      C1806   1.457       .  A
C1806      C1807   1.534       .  S
C1807      F1811   1.386       .  S
C1807      F1812   1.371       .  S
C1807      F1813   1.380       .  S
C1810      F1814   1.383       .  S
C1810      F1815   1.383       .  S
C1810      F1816   1.385       .  S
C1817      H1824   1.064       .  S
C1817      C1818   1.432       .  A
C1817      C1822   1.404       .  A
C1818      C1819   1.456       .  A
C1819      C1826   1.517       .  S
C1819      C1820   1.421       .  A
C1820      H1825   1.085       .  S
C1820      C1821   1.399       .  A
C1821      C1822   1.412       .  A
C1822      C1823   1.526       .  S
C1823      F1827   1.386       .  S
C1823      F1828   1.382       .  S
C1823      F1829   1.381       .  S
C1826      F1830   1.383       .  S
C1826      F1831   1.361   1_545  S
C1826      F1832   1.385       .  S
C1833      H1840   1.077       .  S
C1833      C1834   1.428       .  A
C1833      C1838   1.405       .  A
C1834      C1835   1.474   1_545  A
C1835      C1842   1.554       .  S
C1835      C1836   1.413       .  A
C1836      H1841   1.080       .  S
C1836      C1837   1.390   1_565  A
C1837      C1838   1.407       .  A
C1838      C1839   1.521       .  S
C1839      F1843   1.385       .  S
C1839      F1844   1.384       .  S
C1839      F1845   1.383       .  S
C1842      F1846   1.373       .  S
C1842      F1847   1.372       .  S
C1842      F1848   1.387       .  S
C1849      H1856   1.081       .  S
C1849      C1850   1.402       .  A
C1849      C1854   1.424       .  A
C1850      C1851   1.409       .  A
C1851      C1858   1.525       .  S
C1851      C1852   1.397       .  A
C1852      H1857   1.080       .  S
C1852      C1853   1.434       .  A
C1853      C1854   1.457       .  A
C1854      C1855   1.535       .  S
C1855      F1859   1.379       .  S
C1855      F1860   1.386       .  S
C1855      F1861   1.376       .  S
C1858      F1862   1.383   1_545  S
C1858      F1863   1.384       .  S
C1858      F1864   1.385       .  S
C1865      H1872   1.086       .  S
C1865      C1866   1.394       .  A
C1865      C1870   1.415       .  A
C1866      C1867   1.409       .  A
C1867      C1874   1.517       .  S
C1867      C1868   1.412       .  A
C1868      H1873   1.070       .  S
C1868      C1869   1.421       .  A
C1869      C1870   1.452       .  A
C1870      C1871   1.526       .  S
C1871      F1875   1.386       .  S
C1871      F1876   1.368       .  S
C1871      F1877   1.381       .  S
C1874      F1878   1.383       .  S
C1874      F1879   1.383       .  S
C1874      F1880   1.384       .  S
C1881      H1888   1.078       .  S
C1881      C1882   1.428       .  A
C1881      C1886   1.412       .  A
C1882      C1883   1.448       .  A
C1883      C1890   1.521       .  S
C1883      C1884   1.411       .  A
C1884      H1889   1.085       .  S
C1884      C1885   1.391       .  A
C1885      C1886   1.407       .  A
C1886      C1887   1.515       .  S
C1887      F1891   1.385       .  S
C1887      F1892   1.379       .  S
C1887      F1893   1.383       .  S
C1890      F1894   1.370       .  S
C1890      F1895   1.378       .  S
C1890      F1896   1.387       .  S
C1897      H1904   1.081       .  S
C1897      C1898   1.419       .  A
C1897      C1902   1.411       .  A
C1898      C1899   1.459       .  A
C1899      C1906   1.522       .  S
C1899      C1900   1.407       .  A
C1900      H1905   1.086       .  S
C1900      C1901   1.387       .  A
C1901      C1902   1.414       .  A
C1902      C1903   1.519       .  S
C1903      F1907   1.385       .  S
C1903      F1908   1.382       .  S
C1903      F1909   1.383       .  S
C1906      F1910   1.381       .  S
C1906      F1911   1.360       .  S
C1906      F1912   1.386       .  S
C1913      H1920   1.078       .  S
C1913      C1914   1.415   1_554  A
C1913      C1918   1.411   1_554  A
C1914      C1915   1.451       .  A
C1915      C1922   1.523       .  S
C1915      C1916   1.396       .  A
C1916      H1921   1.086       .  S
C1916      C1917   1.384       .  A
C1917      C1918   1.414       .  A
C1918      C1919   1.518   1_556  S
C1919      F1923   1.384       .  S
C1919      F1924   1.382       .  S
C1919      F1925   1.382   1_554  S
C1922      F1926   1.386       .  S
C1922      F1927   1.364       .  S
C1922      F1928   1.383       .  S
C1929      H1936   1.082       .  S
C1929      C1930   1.418       .  A
C1929      C1934   1.424       .  A
C1930      C1931   1.427   1_554  A
C1931      C1938   1.526       .  S
C1931      C1932   1.397       .  A
C1932      H1937   1.085       .  S
C1932      C1933   1.404   1_556  A
C1933      C1934   1.432       .  A
C1934      C1935   1.514       .  S
C1935      F1939   1.385       .  S
C1935      F1940   1.380       .  S
C1935      F1941   1.383       .  S
C1938      F1942   1.380       .  S
C1938      F1943   1.381       .  S
C1938      F1944   1.387       .  S
C1945      H1952   1.085       .  S
C1945      C1946   1.404       .  A
C1945      C1950   1.419       .  A
C1946      C1947   1.407       .  A
C1947      C1954   1.527       .  S
C1947      C1948   1.404       .  A
C1948      H1953   1.069       .  S
C1948      C1949   1.435       .  A
C1949      C1950   1.450       .  A
C1950      C1951   1.524       .  S
C1951      F1955   1.381       .  S
C1951      F1956   1.375       .  S
C1951      F1957   1.384       .  S
C1954      F1958   1.384       .  S
C1954      F1959   1.383       .  S
C1954      F1960   1.385       .  S
C1961      H1968   1.084       .  S
C1961      C1962   1.409       .  A
C1961      C1966   1.421       .  A
C1962      C1963   1.415       .  A
C1963      C1970   1.522       .  S
C1963      C1964   1.412       .  A
C1964      H1969   1.069       .  S
C1964      C1965   1.432       .  A
C1965      C1966   1.448       .  A
C1966      C1967   1.523       .  S
C1967      F1971   1.381       .  S
C1967      F1972   1.375       .  S
C1967      F1973   1.384       .  S
C1970      F1974   1.383       .  S
C1970      F1975   1.379       .  S
C1970      F1976   1.385       .  S
C1977      H1984   1.072       .  S
C1977      C1978   1.416       .  A
C1977      C1982   1.407       .  A
C1978      C1979   1.447       .  A
C1979      C1986   1.527       .  S
C1979      C1980   1.411       .  A
C1980      H1985   1.085       .  S
C1980      C1981   1.399       .  A
C1981      C1982   1.411       .  A
C1982      C1983   1.520       .  S
C1983      F1987   1.385       .  S
C1983      F1988   1.383       .  S
C1983      F1989   1.381       .  S
C1986      F1990   1.385       .  S
C1986      F1991   1.370       .  S
C1986      F1992   1.382       .  S
C1993      H2000   1.084       .  S
C1993      C1994   1.407       .  A
C1993      C1998   1.417       .  A
C1994      C1995   1.428       .  A
C1995      C2002   1.530       .  S
C1995      C1996   1.407       .  A
C1996      H2001   1.071       .  S
C1996      C1997   1.420       .  A
C1997      C1998   1.437       .  A
C1998      C1999   1.525       .  S
C1999      F2003   1.377       .  S
C1999      F2004   1.385       .  S
C1999      F2005   1.383       .  S
C2002      F2006   1.384       .  S
C2002      F2007   1.384       .  S
C2002      F2008   1.385       .  S
C2009      H2016   1.084       .  S
C2009      C2010   1.382       .  A
C2009      C2014   1.397       .  A
C2010      C2011   1.413       .  A
C2011      C2018   1.515       .  S
C2011      C2012   1.418       .  A
C2012      H2017   1.075       .  S
C2012      C2013   1.420       .  A
C2013      C2014   1.464       .  A
C2014      C2015   1.542       .  S
C2015      F2019   1.387       .  S
C2015      F2020   1.378       .  S
C2015      F2021   1.375       .  S
C2018      F2022   1.383       .  S
C2018      F2023   1.383       .  S
C2018      F2024   1.384       .  S
C2025      H2032   1.072       .  S
C2025      C2026   1.432       .  A
C2025      C2030   1.398       .  A
C2026      C2027   1.451       .  A
C2027      C2034   1.523       .  S
C2027      C2028   1.425       .  A
C2028      H2033   1.084       .  S
C2028      C2029   1.401       .  A
C2029      C2030   1.395       .  A
C2030      C2031   1.521       .  S
C2031      F2035   1.385       .  S
C2031      F2036   1.383       .  S
C2031      F2037   1.383       .  S
C2034      F2038   1.381       .  S
C2034      F2039   1.376       .  S
C2034      F2040   1.386       .  S
C2041      H2048   1.082       .  S
C2041      C2042   1.420       .  A
C2041      C2046   1.428       .  A
C2042      C2043   1.454       .  A
C2043      C2050   1.542       .  S
C2043      C2044   1.392       .  A
C2044      H2049   1.084       .  S
C2044      C2045   1.397       .  A
C2045      C2046   1.424       .  A
C2046      C2047   1.513       .  S
C2047      F2051   1.385       .  S
C2047      F2052   1.383       .  S
C2047      F2053   1.383       .  S
C2050      F2054   1.387       .  S
C2050      F2055   1.367       .  S
C2050      F2056   1.383       .  S
C2057      H2064   1.075       .  S
C2057      C2058   1.426       .  A
C2057      C2062   1.393       .  A
C2058      C2059   1.445       .  A
C2059      C2066   1.527       .  S
C2059      C2060   1.427       .  A
C2060      H2065   1.083       .  S
C2060      C2061   1.407       .  A
C2061      C2062   1.398       .  A
C2062      C2063   1.520       .  S
C2063      F2067   1.385       .  S
C2063      F2068   1.383       .  S
C2063      F2069   1.379       .  S
C2066      F2070   1.376       .  S
C2066      F2071   1.385       .  S
C2066      F2072   1.378       .  S
C2073      H2080   1.080       .  S
C2073      C2074   1.427       .  A
C2073      C2078   1.398       .  A
C2074      C2075   1.459       .  A
C2075      C2082   1.533       .  S
C2075      C2076   1.423       .  A
C2076      H2081   1.085       .  S
C2076      C2077   1.400       .  A
C2077      C2078   1.409       .  A
C2078      C2079   1.525       .  S
C2079      F2083   1.385       .  S
C2079      F2084   1.382       .  S
C2079      F2085   1.384       .  S
C2082      F2086   1.364       .  S
C2082      F2087   1.382       .  S
C2082      F2088   1.386       .  S
C2089      H2096   1.063       .  S
C2089      C2090   1.430       .  A
C2089      C2094   1.397       .  A
C2090      C2091   1.452       .  A
C2091      C2098   1.525       .  S
C2091      C2092   1.418       .  A
C2092      H2097   1.085       .  S
C2092      C2093   1.400       .  A
C2093      C2094   1.400       .  A
C2094      C2095   1.525       .  S
C2095      F2099   1.384       .  S
C2095      F2100   1.383       .  S
C2095      F2101   1.379       .  S
C2098      F2102   1.375       .  S
C2098      F2103   1.383       .  S
C2098      F2104   1.382       .  S
C2105      H2112   1.083       .  S
C2105      C2106   1.385       .  A
C2105      C2110   1.409       .  A
C2106      C2107   1.409       .  A
C2107      C2114   1.517       .  S
C2107      C2108   1.416       .  A
C2108      H2113   1.078       .  S
C2108      C2109   1.422       .  A
C2109      C2110   1.462       .  A
C2110      C2111   1.534       .  S
C2111      F2115   1.386       .  S
C2111      F2116   1.368       .  S
C2111      F2117   1.379       .  S
C2114      F2118   1.383       .  S
C2114      F2119   1.383       .  S
C2114      F2120   1.384       .  S
C2121      H2128   1.062       .  S
C2121      C2122   1.436       .  A
C2121      C2126   1.404       .  A
C2122      C2123   1.449       .  A
C2123      C2130   1.525       .  S
C2123      C2124   1.421       .  A
C2124      H2129   1.085       .  S
C2124      C2125   1.404       .  A
C2125      C2126   1.406       .  A
C2126      C2127   1.527       .  S
C2127      F2131   1.385       .  S
C2127      F2132   1.383       .  S
C2127      F2133   1.383       .  S
C2130      F2134   1.384       .  S
C2130      F2135   1.369       .  S
C2130      F2136   1.383       .  S
C2137      H2144   1.084       .  S
C2137      C2138   1.386       .  A
C2137      C2142   1.406       .  A
C2138      C2139   1.411       .  A
C2139      C2146   1.516       .  S
C2139      C2140   1.418       .  A
C2140      H2145   1.076       .  S
C2140      C2141   1.425       .  A
C2141      C2142   1.460       .  A
C2142      C2143   1.538       .  S
C2143      F2147   1.381       .  S
C2143      F2148   1.386       .  S
C2143      F2149   1.375       .  S
C2146      F2150   1.383       .  S
C2146      F2151   1.383       .  S
C2146      F2152   1.385       .  S
C2153      H2160   1.085       .  S
C2153      C2154   1.400       .  A
C2153      C2158   1.414       .  A
C2154      C2155   1.401       .  A
C2155      C2162   1.523       .  S
C2155      C2156   1.404       .  A
C2156      H2161   1.067       .  S
C2156      C2157   1.440       .  A
C2157      C2158   1.447       .  A
C2158      C2159   1.525       .  S
C2159      F2163   1.383       .  S
C2159      F2164   1.369       .  S
C2159      F2165   1.385       .  S
C2162      F2166   1.383       .  S
C2162      F2167   1.383       .  S
C2162      F2168   1.386       .  S
C2169      H2176   1.085       .  S
C2169      C2170   1.393       .  A
C2169      C2174   1.396       .  A
C2170      C2171   1.424       .  A
C2171      C2178   1.517       .  S
C2171      C2172   1.428       .  A
C2172      H2177   1.068       .  S
C2172      C2173   1.420       .  A
C2173      C2174   1.459       .  A
C2174      C2175   1.541       .  S
C2175      F2179   1.387       .  S
C2175      F2180   1.382       .  S
C2175      F2181   1.360       .  S
C2178      F2182   1.383       .  S
C2178      F2183   1.383       .  S
C2178      F2184   1.385       .  S
C2185      H2192   1.072       .  S
C2185      C2186   1.434   1_565  A
C2185      C2190   1.407       .  A
C2186      C2187   1.448       .  A
C2187      C2194   1.523       .  S
C2187      C2188   1.418       .  A
C2188      H2193   1.085       .  S
C2188      C2189   1.401   1_545  A
C2189      C2190   1.405       .  A
C2190      C2191   1.524       .  S
C2191      F2195   1.385       .  S
C2191      F2196   1.383       .  S
C2191      F2197   1.383       .  S
C2194      F2198   1.383       .  S
C2194      F2199   1.377       .  S
C2194      F2200   1.382       .  S
C2201      H2208   1.064       .  S
C2201      C2202   1.429       .  A
C2201      C2206   1.400       .  A
C2202      C2203   1.466       .  A
C2203      C2210   1.533       .  S
C2203      C2204   1.427       .  A
C2204      H2209   1.086       .  S
C2204      C2205   1.396       .  A
C2205      C2206   1.395       .  A
C2206      C2207   1.520       .  S
C2207      F2211   1.383       .  S
C2207      F2212   1.384       .  S
C2207      F2213   1.379   1_545  S
C2210      F2214   1.382       .  S
C2210      F2215   1.362       .  S
C2210      F2216   1.387   1_545  S
C2217      H2224   1.080       .  S
C2217      C2218   1.422       .  A
C2217      C2222   1.426       .  A
C2218      C2219   1.423       .  A
C2219      C2226   1.526       .  S
C2219      C2220   1.405       .  A
C2220      H2225   1.084       .  S
C2220      C2221   1.405       .  A
C2221      C2222   1.425       .  A
C2222      C2223   1.516       .  S
C2223      F2227   1.385       .  S
C2223      F2228   1.383       .  S
C2223      F2229   1.382       .  S
C2226      F2230   1.384       .  S
C2226      F2231   1.378       .  S
C2226      F2232   1.385       .  S
C2233      H2240   1.084       .  S
C2233      C2234   1.405       .  A
C2233      C2238   1.423       .  A
C2234      C2235   1.417       .  A
C2235      C2242   1.529       .  S
C2235      C2236   1.405       .  A
C2236      H2241   1.057       .  S
C2236      C2237   1.422       .  A
C2237      C2238   1.446       .  A
C2238      C2239   1.520       .  S
C2239      F2243   1.384       .  S
C2239      F2244   1.382       .  S
C2239      F2245   1.374       .  S
C2242      F2246   1.383       .  S
C2242      F2247   1.383       .  S
C2242      F2248   1.385       .  S
C2249      H2256   1.083       .  S
C2249      C2250   1.385       .  A
C2249      C2254   1.417       .  A
C2250      C2251   1.408       .  A
C2251      C2258   1.518       .  S
C2251      C2252   1.411       .  A
C2252      H2257   1.067       .  S
C2252      C2253   1.424       .  A
C2253      C2254   1.467       .  A
C2254      C2255   1.530       .  S
C2255      F2259   1.387       .  S
C2255      F2260   1.373       .  S
C2255      F2261   1.376       .  S
C2258      F2262   1.382       .  S
C2258      F2263   1.382       .  S
C2258      F2264   1.385       .  S
C2265      H2272   1.082       .  S
C2265      C2266   1.406       .  A
C2265      C2270   1.427       .  A
C2266      C2267   1.412       .  A
C2267      C2274   1.532       .  S
C2267      C2268   1.397       .  A
C2268      H2273   1.069       .  S
C2268      C2269   1.430       .  A
C2269      C2270   1.447       .  A
C2270      C2271   1.523       .  S
C2271      F2275   1.381       .  S
C2271      F2276   1.373       .  S
C2271      F2277   1.385       .  S
C2274      F2278   1.384       .  S
C2274      F2279   1.383       .  S
C2274      F2280   1.386       .  S
C2281      H2288   1.085       .  S
C2281      C2282   1.385       .  A
C2281      C2286   1.400       .  A
C2282      C2283   1.413       .  A
C2283      C2290   1.518       .  S
C2283      C2284   1.412       .  A
C2284      H2289   1.080       .  S
C2284      C2285   1.422       .  A
C2285      C2286   1.451       .  A
C2286      C2287   1.528       .  S
C2287      F2291   1.387       .  S
C2287      F2292   1.378       .  S
C2287      F2293   1.371       .  S
C2290      F2294   1.383       .  S
C2290      F2295   1.382       .  S
C2290      F2296   1.385       .  S
C2297      H2304   1.086       .  S
C2297      C2298   1.402       .  A
C2297      C2302   1.423       .  A
C2298      C2299   1.397       .  A
C2299      C2306   1.530       .  S
C2299      C2300   1.390       .  A
C2300      H2305   1.066       .  S
C2300      C2301   1.431       .  A
C2301      C2302   1.456       .  A
C2302      C2303   1.528       .  S
C2303      F2307   1.386       .  S
C2303      F2308   1.363   1_556  S
C2303      F2309   1.383       .  S
C2306      F2310   1.383       .  S
C2306      F2311   1.384       .  S
C2306      F2312   1.384       .  S
C2313      H2320   1.084       .  S
C2313      C2314   1.395       .  A
C2313      C2318   1.394       .  A
C2314      C2315   1.420       .  A
C2315      C2322   1.516       .  S
C2315      C2316   1.425       .  A
C2316      H2321   1.075       .  S
C2316      C2317   1.422       .  A
C2317      C2318   1.457       .  A
C2318      C2319   1.541       .  S
C2319      F2323   1.388       .  S
C2319      F2324   1.368       .  S
C2319      F2325   1.380       .  S
C2322      F2326   1.383       .  S
C2322      F2327   1.383       .  S
C2322      F2328   1.385       .  S
