geometry optimzed in LAMMPS
_audit_creation_date              2020-11-30 
_audit_creation_method            'lammps2cif' 
_symmetry_space_group_name_H-M    'P1' 
_symmetry_Int_Tables_number       1 
_symmetry_cell_setting            triclinic 
loop_ 
_symmetry_equiv_pos_as_xyz 
  x,y,z 
_cell_length_a                    53.43912062 
_cell_length_b                    53.27369051879066 
_cell_length_c                    53.296247783791024 
_cell_angle_alpha                 90.04077809017878 
_cell_angle_beta                  89.98965078287507 
_cell_angle_gamma                 89.86535634586109 
loop_ 
_atom_site_label 
_atom_site_type_symbol 
_atom_site_fract_x 
_atom_site_fract_y 
_atom_site_fract_z 
_atom_site_charge 
C1          C  0.02040447  0.98503787  0.99275610     0.01900
C2          C  0.01360698  0.00551692  0.97722887     0.01900
C3          C  0.99259321  0.02053843  0.98356111     0.01900
C4          C  0.97712288  0.01380537  0.00412179     0.01900
C5          C  0.98403435  0.99341299  0.01977022     0.01900
C6          C  0.00479916  0.97808670  0.01313436     0.01900
O7          O  0.02070097  0.19617610  0.86511739    -0.80500
O8          O  0.97714015  0.30187519  0.86724465    -0.80500
O9          O  0.95814178  0.24963086  0.84067337    -0.80500
O10         O  0.03878022  0.24906810  0.83772375    -0.80500
O11         O  0.94194980  0.26855378  0.87297882    -0.80600
O12         O  0.05621939  0.22967456  0.86915360    -0.80500
O13         O  0.99862813  0.28389116  0.83666396    -0.80500
O14         O  0.99692539  0.21468100  0.83666357    -0.80600
C15         C  0.01253452  0.19793298  0.84269023     1.09200
C16         C  0.98402987  0.30093747  0.84439905     1.09100
C17         C  0.93991222  0.26134611  0.85032664     1.09200
C18         C  0.05736743  0.23711779  0.84654820     1.09100
O19         O  0.03630626  0.24862046  0.91631096    -0.80500
O20         O  0.96531436  0.24967860  0.91901375    -0.80600
O21         O  0.98039161  0.19282736  0.88385213    -0.80500
O22         O  0.01864986  0.30575767  0.88264362    -0.80500
O23         O  0.00066036  0.28822458  0.91481880    -0.80600
O24         O  0.00058449  0.21009960  0.91483247    -0.80500
O25         O  0.05289757  0.27107105  0.88580421    -0.80500
O26         O  0.94646067  0.22751298  0.88973128    -0.80600
Co27       Co  0.02582502  0.22344912  0.89121822     1.51500
Co28       Co  0.97383818  0.27469931  0.89319703     1.51700
Co29       Co  0.97291302  0.22363111  0.86289673     1.51600
Co30       Co  0.02475558  0.27488816  0.86101050     1.51500
O31         O  0.99939875  0.24916947  0.87705972    -1.42400
C32         C  0.05300128  0.26349564  0.90844921     1.09100
C33         C  0.94783197  0.23522911  0.91231959     1.09200
C34         C  0.98811432  0.19185721  0.90635062     1.09100
C35         C  0.01177419  0.30692350  0.90543929     1.09100
O36         O  0.86731240  0.01744104  0.19410808    -0.80500
O37         O  0.86781270  0.97959474  0.30340224    -0.80500
O38         O  0.83943913  0.95978339  0.25048562    -0.80500
O39         O  0.83847589  0.03654710  0.24683862    -0.80500
O40         O  0.87064144  0.94312747  0.27094048    -0.80600
O41         O  0.86921930  0.05391560  0.22642062    -0.80500
O42         O  0.83730851  0.00023765  0.28480129    -0.80500
O43         O  0.83726419  0.99620653  0.21263993    -0.80600
C44         C  0.84486585  0.00975663  0.19477760     1.09200
C45         C  0.84519536  0.98692247  0.30276309     1.09100
C46         C  0.84817855  0.94168162  0.26310995     1.09200
C47         C  0.84666548  0.05476232  0.23408658     1.09100
O48         O  0.91643500  0.03402476  0.24665275    -0.80500
O49         O  0.91737872  0.96387472  0.25067877    -0.80600
O50         O  0.88447962  0.97627265  0.19310815    -0.80500
O51         O  0.88396244  0.02113481  0.30416960    -0.80500
O52         O  0.91533207  0.00085419  0.28761391    -0.80600
O53         O  0.91529367  0.99718262  0.20974517    -0.80500
O54         O  0.88638008  0.05334339  0.26735515    -0.80500
O55         O  0.88761473  0.94435111  0.22993116    -0.80600
Co56       Co  0.89188675  0.02334227  0.22176567     1.51500
Co57       Co  0.89254918  0.97418497  0.27562471     1.51700
Co58       Co  0.86235939  0.97162494  0.22391177     1.51600
Co59       Co  0.86173815  0.02538348  0.27340441     1.51500
O60         O  0.87707855  0.99861649  0.24868849    -1.42400
C61         C  0.90902042  0.05192150  0.26018964     1.09100
C62         C  0.91007395  0.94559272  0.23763871     1.09200
C63         C  0.90675823  0.98449441  0.19161770     1.09100
C64         C  0.90644806  0.01339858  0.30571144     1.09100
C65         C  0.02306441  0.01199824  0.50345563     0.01900
C66         C  0.00774284  0.01836856  0.48251760     0.01900
C67         C  0.98656504  0.00348587  0.47643299     0.01900
C68         C  0.97920073  0.98376348  0.49271430     0.01900
C69         C  0.99439998  0.97725478  0.51364609     0.01900
C70         C  0.01559692  0.99225865  0.51994717     0.01900
O71         O  0.02079745  0.80238728  0.63236828    -0.80500
O72         O  0.97983966  0.69503431  0.63247711    -0.80500
O73         O  0.96073609  0.74785451  0.66069037    -0.80500
O74         O  0.04008247  0.74982389  0.66011120    -0.80500
O75         O  0.94376859  0.72815844  0.62919945    -0.80600
O76         O  0.05655700  0.76936872  0.62827908    -0.80500
O77         O  0.00170571  0.71348908  0.66238431    -0.80500
O78         O  0.99930776  0.78399277  0.66257350    -0.80600
C79         C  0.01383154  0.80118429  0.65514482     1.09200
C80         C  0.98736605  0.69608110  0.65508859     1.09100
C81         C  0.94232066  0.73584514  0.65178736     1.09200
C82         C  0.05819286  0.76211138  0.65097112     1.09100
O83         O  0.03512802  0.74986118  0.58159858    -0.80500
O84         O  0.96421075  0.74771750  0.58216940    -0.80600
O85         O  0.97952980  0.80485978  0.61614321    -0.80500
O86         O  0.02092058  0.69285857  0.61558502    -0.80500
O87         O  0.00077441  0.70932295  0.58401333    -0.80600
O88         O  0.99888650  0.78816215  0.58421937    -0.80500
O89         O  0.05398964  0.72827974  0.61142015    -0.80500
O90         O  0.94613947  0.76944441  0.61242344    -0.80600
Co91       Co  0.02533997  0.77496647  0.60683820     1.51500
Co92       Co  0.97465901  0.72253766  0.60718329     1.51700
Co93       Co  0.97391582  0.77403225  0.63770977     1.51600
Co94       Co  0.02667475  0.72361586  0.63720035     1.51500
O95         O  0.00012464  0.74877336  0.62221769    -1.42400
C96         C  0.05261854  0.73554585  0.58871165     1.09100
C97         C  0.94691820  0.76213618  0.58969047     1.09200
C98         C  0.98671810  0.80637046  0.59347081     1.09100
C99         C  0.01353244  0.69135766  0.59297930     1.09100
O100        O  0.19594490  0.86582531  0.02109385    -0.80500
O101        O  0.30021977  0.86121538  0.97503012    -0.80500
O102        O  0.24675493  0.83948650  0.95714901    -0.80500
O103        O  0.24685205  0.83574936  0.03711981    -0.80500
O104        O  0.26646009  0.87111737  0.94088524    -0.80600
O105        O  0.23023646  0.86800184  0.05596545    -0.80500
O106        O  0.28055349  0.83203484  0.99688306    -0.80500
O107        O  0.21216209  0.83650325  0.99652572    -0.80600
C108        C  0.19580259  0.84363132  0.01217349     1.09200
C109        C  0.29761986  0.83844823  0.98184923     1.09100
C110        C  0.25846908  0.84879554  0.93882039     1.09200
C111        C  0.23634658  0.84496106  0.05636508     1.09100
O112        O  0.25048492  0.91418627  0.03548656    -0.80500
O113        O  0.25210065  0.91731829  0.96627812    -0.80600
O114        O  0.19235127  0.88451272  0.98077629    -0.80500
O115        O  0.30668577  0.87587806  0.01663414    -0.80500
O116        O  0.29132295  0.90973932  0.99994170    -0.80600
O117        O  0.21029016  0.91490739  0.00125459    -0.80500
O118        O  0.27201930  0.88204771  0.05052035    -0.80500
O119        O  0.22691443  0.89054798  0.94715190    -0.80600
Co120      Co  0.22414143  0.89044833  0.02577626     1.51500
Co121      Co  0.27518024  0.88962578  0.97311436     1.51700
Co122      Co  0.22217300  0.86270669  0.97263242     1.51600
Co123      Co  0.27393971  0.85695150  0.02294207     1.51500
O124        O  0.24880574  0.87512368  0.99868031    -1.42400
C125        C  0.26694967  0.90537678  0.05013300     1.09100
C126        C  0.23568294  0.91264776  0.94991890     1.09200
C127        C  0.19159022  0.90675365  0.98919196     1.09100
C128        C  0.30941165  0.89882215  0.01068001     1.09100
O129        O  0.00103667  0.78315168  0.16676740    -0.80500
O130        O  0.00074185  0.71664688  0.16670974    -0.80500
O131        O  0.94165273  0.76722696  0.13146344    -0.80500
O132        O  0.05812547  0.73377877  0.12868968    -0.80500
O133        O  0.95879058  0.74936597  0.16376551    -0.80600
O134        O  0.04123674  0.75089374  0.16145354    -0.80500
O135        O  0.02430546  0.69962345  0.13685682    -0.80500
O136        O  0.97596324  0.80143585  0.13917226    -0.80600
C137        C  0.98453499  0.79919647  0.16141140     1.09200
C138        C  0.01678749  0.70062106  0.15954851     1.09100
C139        C  0.93996500  0.76018469  0.15409782     1.09200
C140        C  0.05982266  0.74010871  0.15154804     1.09100
O141        O  0.05075131  0.77470854  0.11227838    -0.80500
O142        O  0.94856151  0.72633086  0.11455185    -0.80600
O143        O  0.99792510  0.79101146  0.08906189    -0.80500
O144        O  0.00007929  0.70966674  0.08856550    -0.80500
O145        O  0.98325781  0.69254035  0.12145029    -0.80600
O146        O  0.01597193  0.80839780  0.12097357    -0.80500
O147        O  0.03278019  0.75068475  0.08358176    -0.80500
O148        O  0.96529786  0.75108691  0.08564105    -0.80600
Co149      Co  0.02508120  0.77673982  0.14013809     1.51500
Co150      Co  0.97511707  0.72396695  0.14135439     1.51700
Co151      Co  0.97287467  0.77554646  0.11155657     1.51600
Co152      Co  0.02611162  0.72574842  0.10972862     1.51500
O153        O  0.99974017  0.75045269  0.12566167    -1.42400
C154        C  0.04892010  0.76689072  0.08971496     1.09100
C155        C  0.94987831  0.73439754  0.09205892     1.09200
C156        C  0.00853823  0.80988868  0.09843931     1.09100
C157        C  0.99009997  0.69071733  0.09874408     1.09100
C158        C  0.23507026  0.72983483  0.25629529     0.01900
C159        C  0.22872148  0.74469149  0.23502245     0.01900
C160        C  0.24463741  0.76468073  0.22761046     0.01900
C161        C  0.26569009  0.77094956  0.24274621     0.01900
C162        C  0.27203988  0.75597421  0.26400811     0.01900
C163        C  0.25584622  0.73629446  0.27164559     0.01900
O164        O  0.21836758  0.66546959  0.49989904    -0.80500
O165        O  0.28720627  0.66473417  0.50197029    -0.80500
O166        O  0.23311532  0.62998022  0.55697847    -0.80500
O167        O  0.27254974  0.63150972  0.44338941    -0.80500
O168        O  0.25231106  0.66169961  0.54017471    -0.80600
O169        O  0.25328674  0.66309895  0.46070493    -0.80500
O170        O  0.30594097  0.63576335  0.47900665    -0.80500
O171        O  0.19977486  0.63579256  0.52188398    -0.80600
C172        C  0.20112890  0.65848550  0.51447203     1.09200
C173        C  0.30423648  0.65823738  0.48695559     1.09100
C174        C  0.24025992  0.65262017  0.55838018     1.09200
C175        C  0.26513333  0.65416268  0.44214113     1.09100
O176        O  0.23132677  0.61491469  0.44709178    -0.80500
O177        O  0.27404130  0.61280848  0.55338519    -0.80600
O178        O  0.21297269  0.58714351  0.49931439    -0.80500
O179        O  0.29284228  0.58662040  0.49990128    -0.80500
O180        O  0.30949852  0.61804561  0.51984655    -0.80600
O181        O  0.19589841  0.61918549  0.48077918    -0.80500
O182        O  0.25378234  0.58474206  0.46452456    -0.80500
O183        O  0.25162032  0.58364006  0.53451542    -0.80600
Co184      Co  0.22723655  0.64033048  0.47454192     1.51500
Co185      Co  0.27832119  0.63908644  0.52649322     1.51700
Co186      Co  0.22678333  0.60935397  0.52563892     1.51600
Co187      Co  0.27885939  0.60984170  0.47426968     1.51500
O188        O  0.25283777  0.62456073  0.50019539    -1.42400
C189        C  0.23905334  0.59232595  0.44757349     1.09100
C190        C  0.26620623  0.59030281  0.55191986     1.09200
C191        C  0.19426535  0.59657122  0.48827717     1.09100
C192        C  0.31118836  0.59560182  0.51192072     1.09100
C193        C  0.23498356  0.77070570  0.75454775     0.01900
C194        C  0.22768499  0.75513542  0.73419507     0.01900
C195        C  0.24243066  0.73375778  0.72797504     0.01900
C196        C  0.26263363  0.72619841  0.74367317     0.01900
C197        C  0.26981619  0.74170005  0.76416262     0.01900
C198        C  0.25524926  0.76331641  0.77032863     0.01900
O199        O  0.44506705  0.77091781  0.88433653    -0.80500
O200        O  0.55240188  0.72947223  0.88144593    -0.80500
O201        O  0.50019950  0.71091897  0.90973792    -0.80500
O202        O  0.49831311  0.78832450  0.91233948    -0.80500
O203        O  0.51912837  0.69413737  0.87761710    -0.80600
O204        O  0.47786846  0.80644632  0.88187917    -0.80500
O205        O  0.53486357  0.75024018  0.91261313    -0.80500
O206        O  0.46357829  0.74856512  0.91377048    -0.80600
C207        C  0.44603143  0.76287870  0.90674513     1.09200
C208        C  0.55205050  0.73615816  0.90432801     1.09100
C209        C  0.51197933  0.69257509  0.90033853     1.09200
C210        C  0.48562181  0.80681441  0.90445143     1.09100
O211        O  0.49679636  0.78698612  0.83399324    -0.80500
O212        O  0.49914991  0.71683230  0.83164338    -0.80600
O213        O  0.44235227  0.73013459  0.86676870    -0.80500
O214        O  0.55486483  0.77136063  0.86608659    -0.80500
O215        O  0.53774111  0.75240313  0.83421296    -0.80600
O216        O  0.45837397  0.75085106  0.83537845    -0.80500
O217        O  0.51867326  0.80450564  0.86436831    -0.80500
O218        O  0.47799103  0.69741454  0.86138361    -0.80600
Co219      Co  0.47207057  0.77634186  0.85894406     1.51500
Co220      Co  0.52459782  0.72565544  0.85655198     1.51700
Co221      Co  0.47352562  0.72415614  0.88778032     1.51600
Co222      Co  0.52422120  0.77620163  0.88856686     1.51500
O223        O  0.49861088  0.75062359  0.87291319    -1.42400
C224        C  0.51067233  0.80442009  0.84190345     1.09100
C225        C  0.48474058  0.69945061  0.83858738     1.09200
C226        C  0.44048407  0.73809568  0.84437215     1.09100
C227        C  0.55622155  0.76414329  0.84334570     1.09100
C228        C  0.75404542  0.23745720  0.77382504     0.01900
C229        C  0.77022126  0.25755266  0.76671091     0.01900
C230        C  0.76378899  0.27298638  0.74573799     0.01900
C231        C  0.74277436  0.26688296  0.73045203     0.01900
C232        C  0.72683938  0.24672529  0.73762918     0.01900
C233        C  0.73323092  0.23113829  0.75836965     0.01900
O234        O  0.88725147  0.44823377  0.77326650    -0.80500
O235        O  0.88928033  0.55178072  0.72711458    -0.80500
O236        O  0.91335195  0.49963625  0.70943621    -0.80500
O237        O  0.91245165  0.49979608  0.79153458    -0.80500
O238        O  0.88145073  0.51808901  0.69229231    -0.80600
O239        O  0.87981299  0.48234761  0.80819996    -0.80500
O240        O  0.91756542  0.53362204  0.75155183    -0.80500
O241        O  0.91657585  0.46552872  0.74953488    -0.80600
C242        C  0.90978069  0.44929943  0.76544031     1.09200
C243        C  0.91159244  0.54999949  0.73544578     1.09100
C244        C  0.90406890  0.51107231  0.69082009     1.09200
C245        C  0.90260006  0.48863391  0.80998459     1.09100
O246        O  0.83462875  0.49968678  0.78409357    -0.80500
O247        O  0.83550416  0.50184687  0.71611444    -0.80600
O248        O  0.87067677  0.44263613  0.73207184    -0.80500
O249        O  0.87201424  0.55827959  0.76774486    -0.80500
O250        O  0.83992530  0.54150667  0.74947441    -0.80600
O251        O  0.83875891  0.46034999  0.75000988    -0.80500
O252        O  0.86350465  0.52373955  0.80167920    -0.80500
O253        O  0.86395803  0.47745564  0.69819596    -0.80600
Co254      Co  0.86050448  0.47494640  0.77626703     1.51500
Co255      Co  0.86177645  0.52598038  0.72389533     1.51700
Co256      Co  0.89092707  0.47397520  0.72462772     1.51600
Co257      Co  0.89112790  0.52618284  0.77588087     1.51500
O258        O  0.87610634  0.50026735  0.75020695    -1.42400
C259        C  0.84078987  0.51669306  0.79941825     1.09100
C260        C  0.84154875  0.48559627  0.69997324     1.09200
C261        C  0.84801304  0.44151092  0.73899129     1.09100
C262        C  0.84964798  0.56029115  0.76002889     1.09100
O263        O  0.00029600  0.21481128  0.33200548    -0.80500
O264        O  0.99898229  0.28581895  0.33528389    -0.80500
O265        O  0.94269303  0.22827978  0.36498295    -0.80500
O266        O  0.05551542  0.26726649  0.37000135    -0.80500
O267        O  0.96012255  0.24972638  0.33477299    -0.80600
O268        O  0.03912459  0.24957623  0.33703694    -0.80500
O269        O  0.02018891  0.30084553  0.36739194    -0.80500
O270        O  0.97776890  0.19501502  0.36042653    -0.80600
C271        C  0.98560208  0.19733278  0.33801183     1.09200
C272        C  0.01523210  0.30068391  0.34410838     1.09100
C273        C  0.94207025  0.23640131  0.34255232     1.09200
C274        C  0.05745127  0.26073018  0.34709615     1.09100
O275        O  0.05152544  0.22543199  0.38445932    -0.80500
O276        O  0.94524399  0.26865719  0.38387511    -0.80600
O277        O  0.99834003  0.20666438  0.41004677    -0.80500
O278        O  0.99752040  0.28541336  0.41397526    -0.80500
O279        O  0.97872599  0.30437184  0.38291183    -0.80600
O280        O  0.01812899  0.19070861  0.37807478    -0.80500
O281        O  0.03261224  0.24583646  0.41510940    -0.80500
O282        O  0.96307609  0.24541217  0.41311041    -0.80600
Co283      Co  0.02482211  0.22262359  0.35814183     1.51500
Co284      Co  0.97318882  0.27459476  0.35936399     1.51700
Co285      Co  0.97291261  0.22126309  0.38714900     1.51600
Co286      Co  0.02395634  0.27242020  0.39121617     1.51500
O287        O  0.99869574  0.24780466  0.37380891    -1.42400
C288        C  0.05016785  0.23195832  0.40736340     1.09100
C289        C  0.94612692  0.26043653  0.40625464     1.09200
C290        C  0.01055266  0.18861726  0.40058737     1.09100
C291        C  0.98602829  0.30454137  0.40566184     1.09100
C292        C  0.23443972  0.27222914  0.24436976     0.01900
C293        C  0.22767609  0.25663594  0.26503135     0.01900
C294        C  0.24280693  0.23550062  0.27128084     0.01900
C295        C  0.26290057  0.22824438  0.25523179     0.01900
C296        C  0.26978085  0.24404068  0.23478359     0.01900
C297        C  0.25483988  0.26532849  0.22862293     0.01900
O298        O  0.21687192  0.33452203  0.00191867    -0.80500
O299        O  0.28602296  0.33734518  0.99968991    -0.80500
O300        O  0.23120655  0.36922496  0.94285762    -0.80500
O301        O  0.26893125  0.37254003  0.05754570    -0.80500
O302        O  0.25141869  0.33840694  0.96028742    -0.80600
O303        O  0.25144474  0.34002108  0.04047090    -0.80500
O304        O  0.30298375  0.36768823  0.02221950    -0.80500
O305        O  0.19771122  0.36245844  0.97802892    -0.80600
C306        C  0.20002701  0.34012129  0.98629105     1.09200
C307        C  0.30256690  0.34499231  0.01477454     1.09100
C308        C  0.23931218  0.34684752  0.94172119     1.09200
C309        C  0.26228801  0.34970571  0.05915314     1.09100
O310        O  0.22738150  0.38829127  0.05220232    -0.80500
O311        O  0.27140402  0.38805105  0.94712709    -0.80600
O312        O  0.20848632  0.41244310  0.99941068    -0.80500
O313        O  0.28896514  0.41559839  0.99953454    -0.80500
O314        O  0.30694840  0.38419497  0.98066648    -0.80600
O315        O  0.19249130  0.38042513  0.01865923    -0.80500
O316        O  0.24951688  0.41786584  0.03353459    -0.80500
O317        O  0.24702185  0.41647949  0.96500511    -0.80600
Co318      Co  0.22461358  0.36113599  0.02598299     1.51500
Co319      Co  0.27636031  0.36218166  0.97431455     1.51700
Co320      Co  0.22346248  0.39000805  0.97389327     1.51600
Co321      Co  0.27518604  0.39296767  0.02566206     1.51500
O322        O  0.24994110  0.37657651  0.99992967    -1.42400
C323        C  0.23408499  0.41110287  0.05006555     1.09100
C324        C  0.26282779  0.41033517  0.94854032     1.09200
C325        C  0.19026269  0.40285719  0.01094951     1.09100
C326        C  0.30773120  0.40689638  0.98794093     1.09100
C327        C  0.24343993  0.26287380  0.77249873     0.01900
C328        C  0.22779688  0.24267470  0.76456171     0.01900
C329        C  0.23531107  0.22760935  0.74375285     0.01900
C330        C  0.25668233  0.23437816  0.72937392     0.01900
C331        C  0.27239759  0.25435832  0.73735643     0.01900
C332        C  0.26512134  0.26953997  0.75823182     0.01900
O333        O  0.55266089  0.27380708  0.61416586    -0.80500
O334        O  0.44724441  0.22773138  0.61646834    -0.80500
O335        O  0.50057696  0.21172491  0.58722652    -0.80500
O336        O  0.49813680  0.29043372  0.58692304    -0.80500
O337        O  0.48194022  0.19378457  0.61889731    -0.80600
O338        O  0.51793706  0.30752731  0.61839076    -0.80500
O339        O  0.46385081  0.24996004  0.58581508    -0.80500
O340        O  0.53465575  0.25126731  0.58459129    -0.80600
C341        C  0.55122543  0.26663689  0.59143733     1.09200
C342        C  0.44736361  0.23492475  0.59373710     1.09100
C343        C  0.48888348  0.19309353  0.59606304     1.09200
C344        C  0.51029095  0.30880708  0.59586601     1.09100
O345        O  0.49996117  0.28581463  0.66524538    -0.80500
O346        O  0.50148677  0.21566754  0.66554543    -0.80600
O347        O  0.55714789  0.23294208  0.63125223    -0.80500
O348        O  0.44321970  0.26889965  0.63304393    -0.80500
O349        O  0.46126846  0.24985303  0.66443789    -0.80600
O350        O  0.53948222  0.25171436  0.66293450    -0.80500
O351        O  0.47725636  0.30363994  0.63567229    -0.80500
O352        O  0.52317342  0.19808084  0.63505328    -0.80600
Co353      Co  0.52521615  0.27714583  0.64003986     1.51500
Co354      Co  0.47538874  0.22433630  0.64109911     1.51700
Co355      Co  0.52637397  0.22581628  0.60979355     1.51600
Co356      Co  0.47319811  0.27583195  0.61051055     1.51500
O357        O  0.50000535  0.25080890  0.62526791    -1.42400
C358        C  0.48550409  0.30311503  0.65805364     1.09100
C359        C  0.51604518  0.19866110  0.65780068     1.09200
C360        C  0.55819394  0.24033124  0.65393406     1.09100
C361        C  0.44251895  0.26159776  0.65576101     1.09100
O362        O  0.33525541  0.99650305  0.21399270    -0.80500
O363        O  0.33191787  0.99692528  0.28458146    -0.80500
O364        O  0.37089169  0.94181258  0.23289786    -0.80500
O365        O  0.36241149  0.05534605  0.26964627    -0.80500
O366        O  0.33761431  0.95800282  0.25024136    -0.80600
O367        O  0.33296827  0.03676542  0.24813053    -0.80500
O368        O  0.35969770  0.02061483  0.30382070    -0.80500
O369        O  0.36774324  0.97600222  0.19885510    -0.80600
C370        C  0.34436461  0.98033124  0.19921338     1.09200
C371        C  0.33752965  0.01231856  0.30159798     1.09100
C372        C  0.34792756  0.93989980  0.23884634     1.09200
C373        C  0.34031427  0.05553453  0.26076422     1.09100
O374        O  0.38111198  0.05268345  0.22906886    -0.80500
O375        O  0.38516168  0.94632687  0.27455150    -0.80600
O376        O  0.41368178  0.00022889  0.21482976    -0.80500
O377        O  0.40950165  0.00155356  0.29167320    -0.80500
O378        O  0.37872582  0.98054422  0.30845037    -0.80600
O379        O  0.38230796  0.01758169  0.19506852    -0.80500
O380        O  0.41115877  0.03707406  0.25271121    -0.80500
O381        O  0.41537397  0.96579379  0.25440137    -0.80600
Co382      Co  0.35815973  0.02345512  0.22410810     1.51500
Co383      Co  0.35851108  0.97286094  0.27699226     1.51700
Co384      Co  0.39150619  0.97352383  0.22757244     1.51600
Co385      Co  0.38577463  0.02612334  0.27719013     1.51500
O386        O  0.37335377  0.99908225  0.25146082    -1.42400
C387        C  0.40328549  0.05356895  0.23757399     1.09100
C388        C  0.40800799  0.94807795  0.26820894     1.09200
C389        C  0.40524760  0.01103702  0.19546331     1.09100
C390        C  0.40096044  0.98888688  0.30983760     1.09100
C391        C  0.49320275  0.02249348  0.51471583     0.01900
C392        C  0.47717377  0.01545849  0.49456596     0.01900
C393        C  0.48303493  0.99395320  0.47964647     0.01900
C394        C  0.50351702  0.97802716  0.48635751     0.01900
C395        C  0.51955444  0.98524937  0.50653947     0.01900
C396        C  0.51358866  0.00665358  0.52149065     0.01900
O397        O  0.46597533  0.75101041  0.41622503    -0.80500
O398        O  0.53659241  0.75121997  0.41440872    -0.80500
O399        O  0.48087425  0.69307092  0.38651591    -0.80500
O400        O  0.51911723  0.80585527  0.37930258    -0.80500
O401        O  0.50155671  0.71208875  0.41631482    -0.80600
O402        O  0.50064006  0.78973406  0.41194382    -0.80500
O403        O  0.55360963  0.77111218  0.38251845    -0.80500
O404        O  0.44705407  0.72782515  0.38779599    -0.80600
C405        C  0.44861794  0.73631990  0.41001717     1.09200
C406        C  0.55347683  0.76521633  0.40558967     1.09100
C407        C  0.48895839  0.69338326  0.40894702     1.09200
C408        C  0.51216818  0.80794744  0.40210694     1.09100
O409        O  0.47796642  0.80162154  0.36337774    -0.80500
O410        O  0.52162279  0.69433727  0.36875765    -0.80600
O411        O  0.46020816  0.74607633  0.33794133    -0.80500
O412        O  0.53760649  0.74691680  0.33628007    -0.80500
O413        O  0.55606480  0.72892681  0.36805271    -0.80600
O414        O  0.44364959  0.76766304  0.36858938    -0.80500
O415        O  0.49887041  0.78171900  0.33386288    -0.80500
O416        O  0.49931439  0.71043666  0.33793246    -0.80600
Co417      Co  0.47450885  0.77511155  0.38992112     1.51500
Co418      Co  0.52647793  0.72404866  0.39159793     1.51700
Co419      Co  0.47429178  0.72189047  0.36250682     1.51600
Co420      Co  0.52496593  0.77397932  0.35839889     1.51500
O421        O  0.50008845  0.74871436  0.37557425    -1.42400
C422        C  0.48468045  0.79934480  0.34063527     1.09100
C423        C  0.51383453  0.69361476  0.34624073     1.09200
C424        C  0.44203740  0.75883224  0.34642208     1.09100
C425        C  0.55627543  0.73520311  0.34502042     1.09100
O426        O  0.58231887  0.96746676  0.75063105    -0.80500
O427        O  0.58357722  0.03438667  0.75154017    -0.80500
O428        O  0.61911145  0.98320696  0.80906394    -0.80500
O429        O  0.61956378  0.01745119  0.69295925    -0.80500
O430        O  0.58708195  0.00158698  0.79214382    -0.80600
O431        O  0.58697719  0.00030849  0.71003980    -0.80500
O432        O  0.61251275  0.05172825  0.72734469    -0.80500
O433        O  0.61059371  0.94896462  0.77476857    -0.80600
C434        C  0.58813277  0.95129494  0.76694048     1.09200
C435        C  0.59004486  0.05039276  0.73535018     1.09100
C436        C  0.59670424  0.99083277  0.81093071     1.09200
C437        C  0.59683869  0.01088818  0.69126288     1.09100
O438        O  0.63545546  0.97621532  0.69954148    -0.80500
O439        O  0.63654963  0.02381405  0.80240159    -0.80600
O440        O  0.65998937  0.95863891  0.75147405    -0.80500
O441        O  0.66155219  0.04106697  0.75018822    -0.80500
O442        O  0.62931666  0.05824057  0.76818309    -0.80600
O443        O  0.62737513  0.94208358  0.73391420    -0.80500
O444        O  0.66502770  0.99968409  0.71675159    -0.80500
O445        O  0.66485659  0.99870272  0.78504873    -0.80600
Co446      Co  0.60838934  0.97415134  0.72585950     1.51500
Co447      Co  0.60938184  0.02681519  0.77627310     1.51700
Co448      Co  0.63841552  0.97458680  0.77741420     1.51600
Co449      Co  0.63940657  0.02514150  0.72456301     1.51500
O450        O  0.62400896  0.00020344  0.75104613    -1.42400
C451        C  0.65802367  0.98398644  0.70032849     1.09100
C452        C  0.65884801  0.01536612  0.80086224     1.09200
C453        C  0.65011486  0.94017251  0.74040245     1.09100
C454        C  0.65192711  0.05988548  0.76114605     1.09100
C455        C  0.48587299  0.00240191  0.02510703     0.01900
C456        C  0.47948569  0.98161824  0.00951785     0.01900
C457        C  0.49477982  0.97572622  0.98840178     0.01900
C458        C  0.51503634  0.99182750  0.98169521     0.01900
C459        C  0.52135803  0.01265498  0.99734092     0.01900
C460        C  0.50568877  0.01886950  0.01808551     0.01900
O461        O  0.46510881  0.24866014  0.08411480    -0.80500
O462        O  0.53385817  0.24662890  0.08470546    -0.80500
O463        O  0.48257878  0.30768123  0.11585679    -0.80500
O464        O  0.51498043  0.19164375  0.12276898    -0.80500
O465        O  0.50171519  0.28885914  0.08494869    -0.80600
O466        O  0.49769020  0.20798995  0.08967136    -0.80500
O467        O  0.54964198  0.22503293  0.11630743    -0.80500
O468        O  0.44761352  0.27406291  0.11191780    -0.80600
C469        C  0.44900115  0.26509376  0.08980025     1.09200
C470        C  0.54830699  0.22974670  0.09294354     1.09100
C471        C  0.49044008  0.30812377  0.09337748     1.09200
C472        C  0.50858898  0.18955796  0.09987127     1.09100
O473        O  0.47414442  0.19895322  0.13889626    -0.80500
O474        O  0.52346167  0.30155609  0.13296109    -0.80600
O475        O  0.45831817  0.25425203  0.16219725    -0.80500
O476        O  0.53788346  0.25047718  0.16340594    -0.80500
O477        O  0.55677481  0.26626805  0.13085350    -0.80600
O478        O  0.44141128  0.23429773  0.13082266    -0.80500
O479        O  0.49726520  0.21753643  0.16777413    -0.80500
O480        O  0.49923822  0.28822036  0.16373927    -0.80600
Co481      Co  0.47225971  0.22470893  0.11104258     1.51500
Co482      Co  0.52625267  0.27339868  0.10873683     1.51700
Co483      Co  0.47422403  0.27821847  0.13841527     1.51600
Co484      Co  0.52270104  0.22386500  0.14218271     1.51500
O485        O  0.49880513  0.25016012  0.12512510    -1.42400
C486        C  0.48137315  0.20116958  0.16157982     1.09100
C487        C  0.51498968  0.30375636  0.15514426     1.09200
C488        C  0.43970434  0.24279635  0.15299437     1.09100
C489        C  0.55713666  0.26070121  0.15408671     1.09100
O490        O  0.19631348  0.13545211  0.47820222    -0.80500
O491        O  0.30133381  0.13728637  0.52268933    -0.80500
O492        O  0.24801525  0.16222435  0.54063392    -0.80500
O493        O  0.24816790  0.16405140  0.46066651    -0.80500
O494        O  0.26785756  0.13070886  0.55738749    -0.80600
O495        O  0.23009753  0.13196638  0.44311941    -0.80500
O496        O  0.28261592  0.16688834  0.50041102    -0.80500
O497        O  0.21374628  0.16486357  0.50153437    -0.80600
C498        C  0.19737474  0.15801582  0.48598389     1.09200
C499        C  0.29946097  0.16003596  0.51558153     1.09100
C500        C  0.26004316  0.15318388  0.55895609     1.09200
C501        C  0.23680091  0.15478934  0.44199754     1.09100
O502        O  0.24999609  0.08576576  0.46470920    -0.80500
O503        O  0.25058702  0.08416348  0.53431540    -0.80600
O504        O  0.19242149  0.11734545  0.51884552    -0.80500
O505        O  0.30599325  0.12148899  0.48136021    -0.80500
O506        O  0.28960522  0.08873700  0.49930636    -0.80600
O507        O  0.21100357  0.08671203  0.49922380    -0.80500
O508        O  0.27156992  0.11631699  0.44710674    -0.80500
O509        O  0.22728715  0.11303864  0.55276859    -0.80600
Co510      Co  0.22413573  0.11020110  0.47385613     1.51500
Co511      Co  0.27500317  0.11038318  0.52585232     1.51700
Co512      Co  0.22282208  0.13926222  0.52609593     1.51600
Co513      Co  0.27454315  0.14183642  0.47477406     1.51500
O514        O  0.24913416  0.12547001  0.50015592    -1.42400
C515        C  0.26458485  0.09351136  0.44780571     1.09100
C516        C  0.23553236  0.09066294  0.55143098     1.09200
C517        C  0.19209621  0.09485595  0.51088380     1.09100
C518        C  0.30791556  0.09872369  0.48811360     1.09100
C519        C  0.76189375  0.77390007  0.25557407     0.01900
C520        C  0.74071573  0.76783577  0.27071611     0.01900
C521        C  0.72563830  0.74682093  0.26451652     0.01900
C522        C  0.73287170  0.73068555  0.24470607     0.01900
C523        C  0.75337239  0.73701195  0.22905080     0.01900
C524        C  0.76884307  0.75786490  0.23521814     0.01900
O525        O  0.61405366  0.54998375  0.27407903    -0.80500
O526        O  0.61448411  0.44956201  0.22363073    -0.80500
O527        O  0.59212568  0.50125804  0.20721655    -0.80500
O528        O  0.59096683  0.49822896  0.29041275    -0.80500
O529        O  0.62470770  0.48437586  0.19007384    -0.80600
O530        O  0.62338717  0.51518610  0.30771045    -0.80500
O531        O  0.58621576  0.46617092  0.24939806    -0.80500
O532        O  0.58632687  0.53299434  0.24819267    -0.80600
C533        C  0.59178523  0.54829594  0.26547257     1.09200
C534        C  0.59201970  0.45145619  0.23167792     1.09100
C535        C  0.60222281  0.49173370  0.18806446     1.09200
C536        C  0.60078799  0.50846699  0.30934151     1.09100
O537        O  0.66858715  0.50007917  0.28296414    -0.80500
O538        O  0.66957309  0.49866186  0.21673484    -0.80600
O539        O  0.63164720  0.55813965  0.23378559    -0.80500
O540        O  0.63082543  0.44062841  0.26462784    -0.80500
O541        O  0.66376581  0.45722653  0.24798793    -0.80600
O542        O  0.66391058  0.54079452  0.25107339    -0.80500
O543        O  0.64045124  0.47442016  0.29965573    -0.80500
O544        O  0.64198407  0.52457937  0.19937498    -0.80600
Co545      Co  0.64217290  0.52433717  0.27617852     1.51500
Co546      Co  0.64277202  0.47463751  0.22239435     1.51700
Co547      Co  0.61329151  0.52645588  0.22430438     1.51600
Co548      Co  0.61251432  0.47263894  0.27387283     1.51500
O549        O  0.62767201  0.49945419  0.24921393    -1.42400
C550        C  0.66274576  0.48300547  0.29829696     1.09100
C551        C  0.66425342  0.51596894  0.20145463     1.09200
C552        C  0.65411854  0.55977322  0.24094286     1.09100
C553        C  0.65346693  0.43844443  0.25805003     1.09100
C554        C  0.77000725  0.23887270  0.26628170     0.01900
C555        C  0.76184178  0.22305106  0.24637093     0.01900
C556        C  0.74038857  0.22985949  0.23187190     0.01900
C557        C  0.72575795  0.25121788  0.23880255     0.01900
C558        C  0.73376291  0.26683713  0.25897548     0.01900
C559        C  0.75502391  0.25982055  0.27357186     0.01900
C560        C  0.77177565  0.74502004  0.73411076     0.01900
C561        C  0.76554615  0.72961718  0.75501657     0.01900
C562        C  0.74446182  0.73551713  0.77041252     0.01900
C563        C  0.72772818  0.75511462  0.76312791     0.01900
C564        C  0.73403925  0.77065471  0.74226061     0.01900
C565        C  0.75530262  0.76483136  0.72707830     0.01900
O566        O  0.16464641  0.00018684  0.78553010    -0.80500
O567        O  0.16575680  0.99991052  0.71577740    -0.80500
O568        O  0.13133246  0.94289700  0.76835758    -0.80500
O569        O  0.13123096  0.05663361  0.73086555    -0.80500
O570        O  0.16313667  0.96043959  0.74997924    -0.80600
O571        O  0.16284271  0.03958093  0.75031208    -0.80500
O572        O  0.13637034  0.02218864  0.69697835    -0.80500
O573        O  0.13463922  0.97770677  0.80282944    -0.80600
C574        C  0.15701280  0.98585690  0.80280020     1.09200
C575        C  0.15899095  0.01485458  0.69873469     1.09100
C576        C  0.15397348  0.94167108  0.76115231     1.09200
C577        C  0.15379954  0.05791754  0.73821039     1.09100
O578        O  0.11404966  0.05302220  0.77159895    -0.80500
O579        O  0.11535242  0.94681036  0.72692017    -0.80600
O580        O  0.08659970  0.99941346  0.78869190    -0.80500
O581        O  0.08766782  0.00000361  0.70917658    -0.80500
O582        O  0.11993206  0.98122758  0.69257332    -0.80600
O583        O  0.11784588  0.01896105  0.80621135    -0.80500
O584        O  0.08442536  0.03527270  0.74887883    -0.80500
O585        O  0.08506454  0.96439667  0.74902105    -0.80600
Co586      Co  0.13967395  0.02552970  0.77581953     1.51500
Co587      Co  0.14074731  0.97446265  0.72385190     1.51700
Co588      Co  0.10965208  0.97363032  0.77486636     1.51600
Co589      Co  0.11004542  0.02589845  0.72388819     1.51500
O590        O  0.12493457  0.99986678  0.74965320    -1.42400
C591        C  0.09157064  0.05242881  0.76367107     1.09100
C592        C  0.09261293  0.94773176  0.73387501     1.09200
C593        C  0.09541282  0.01125573  0.80730626     1.09100
C594        C  0.09731873  0.98847850  0.69074509     1.09100
O595        O  0.75388138  0.41591600  0.53457349    -0.80500
O596        O  0.75439875  0.41340040  0.46234986    -0.80500
O597        O  0.80862254  0.37986049  0.51937009    -0.80500
O598        O  0.69673369  0.38384483  0.47996551    -0.80500
O599        O  0.79261619  0.41130359  0.49860292    -0.80600
O600        O  0.71519239  0.41512342  0.49881423    -0.80500
O601        O  0.73141953  0.38331722  0.44597052    -0.80500
O602        O  0.77399380  0.38512166  0.55335095    -0.80600
C603        C  0.76737391  0.40799734  0.55233752     1.09200
C604        C  0.73978128  0.40561586  0.44541418     1.09100
C605        C  0.81055322  0.40225622  0.51122034     1.09200
C606        C  0.69653363  0.40671827  0.48683558     1.09100
O607        O  0.69828675  0.36855251  0.52169922    -0.80500
O608        O  0.80512038  0.36137184  0.47912221    -0.80600
O609        O  0.75039219  0.33772764  0.54069955    -0.80500
O610        O  0.75039167  0.33484335  0.46210644    -0.80500
O611        O  0.77174301  0.36455957  0.44383794    -0.80600
O612        O  0.73210245  0.37059776  0.55688148    -0.80500
O613        O  0.71511445  0.33671263  0.50132262    -0.80500
O614        O  0.78534162  0.33310884  0.50180642    -0.80600
Co615      Co  0.72730846  0.39214364  0.52546297     1.51500
Co616      Co  0.77855918  0.38769924  0.47354301     1.51700
Co617      Co  0.77718271  0.35922793  0.52632181     1.51600
Co618      Co  0.72589853  0.35986231  0.47480760     1.51500
O619        O  0.75221512  0.37481605  0.50001782    -1.42400
C620        C  0.69816196  0.34558418  0.51529181     1.09100
C621        C  0.80269354  0.33896583  0.48692750     1.09200
C622        C  0.73857570  0.34765159  0.55880907     1.09100
C623        C  0.76307717  0.34232706  0.44346787     1.09100
C624        C  0.02505664  0.51174300  0.49548650     0.01900
C625        C  0.00851398  0.51966493  0.51489868     0.01900
C626        C  0.98711877  0.50503861  0.52107405     0.01900
C627        C  0.98054923  0.48399421  0.50590594     0.01900
C628        C  0.99702268  0.47589881  0.48637540     0.01900
C629        C  0.01865133  0.49051319  0.48043827     0.01900
O630        O  0.80208117  0.63465732  0.02466444    -0.80500
O631        O  0.69753351  0.63896473  0.97715078    -0.80500
O632        O  0.75264246  0.66698173  0.96236811    -0.80500
O633        O  0.74892639  0.66372956  0.04079469    -0.80500
O634        O  0.73265812  0.63653518  0.94353719    -0.80600
O635        O  0.76720669  0.63135083  0.05788683    -0.80500
O636        O  0.71523299  0.66771286  0.00096255    -0.80500
O637        O  0.78561586  0.66624985  0.00372456    -0.80600
C638        C  0.80234714  0.65752412  0.01796920     1.09200
C639        C  0.69885045  0.66140251  0.98517961     1.09100
C640        C  0.74097281  0.65885551  0.94328509     1.09200
C641        C  0.76001324  0.65406691  0.05942966     1.09100
O642        O  0.74789909  0.58547622  0.03475406    -0.80500
O643        O  0.75029161  0.58837115  0.96209090    -0.80600
O644        O  0.80684688  0.61968783  0.98322547    -0.80500
O645        O  0.69282640  0.62040593  0.01738001    -0.80500
O646        O  0.71039851  0.58942634  0.99704402    -0.80600
O647        O  0.78846824  0.58762726  0.00076384    -0.80500
O648        O  0.72607492  0.61572798  0.05252009    -0.80500
O649        O  0.77367768  0.61930284  0.94811591    -0.80600
Co650      Co  0.77403034  0.61008440  0.02684482     1.51500
Co651      Co  0.72503078  0.61334103  0.97270135     1.51700
Co652      Co  0.77704649  0.64277383  0.97679057     1.51600
Co653      Co  0.72329112  0.64168234  0.02555184     1.51500
O654        O  0.74983436  0.62683998  0.00037791    -1.42400
C655        C  0.73383490  0.59317788  0.05219322     1.09100
C656        C  0.76542640  0.59708499  0.94603549     1.09200
C657        C  0.80747956  0.59674285  0.98984901     1.09100
C658        C  0.69181612  0.59804513  0.00906737     1.09100
C659        C  0.48528279  0.50723143  0.97704779     0.01900
C660        C  0.50622191  0.52261727  0.98300308     0.01900
C661        C  0.52205393  0.51630220  0.00348611     0.01900
C662        C  0.51573815  0.49583670  0.01946343     0.01900
C663        C  0.49499131  0.48013652  0.01334072     0.01900
C664        C  0.47883568  0.48672468  0.99301664     0.01900
O665        O  0.78404788  0.16519968  0.00559109    -0.80500
O666        O  0.71427404  0.16508165  0.00506304    -0.80500
O667        O  0.76748264  0.13510675  0.94496590    -0.80500
O668        O  0.73192762  0.12486150  0.05931849    -0.80500
O669        O  0.74800922  0.16549767  0.96429148    -0.80600
O670        O  0.74964930  0.15839927  0.04441978    -0.80500
O671        O  0.69822028  0.13288374  0.02552961    -0.80500
O672        O  0.80186725  0.13807022  0.97973081    -0.80600
C673        C  0.80051585  0.15994856  0.98939424     1.09200
C674        C  0.69938778  0.15634381  0.02131061     1.09100
C675        C  0.75958390  0.15756455  0.94508703     1.09200
C676        C  0.73826491  0.14765572  0.06218402     1.09100
O677        O  0.77261814  0.10869176  0.05272466    -0.80500
O678        O  0.72626952  0.11807031  0.94874337    -0.80600
O679        O  0.78928440  0.08744681  0.99785655    -0.80500
O680        O  0.70982665  0.08665567  0.99877843    -0.80500
O681        O  0.69187954  0.12006223  0.98363153    -0.80600
O682        O  0.80676009  0.11750015  0.01917205    -0.80500
O683        O  0.74992776  0.08068931  0.03230486    -0.80500
O684        O  0.74969203  0.08724047  0.96362395    -0.80600
Co685      Co  0.77566112  0.13744685  0.02817097     1.51500
Co686      Co  0.72275954  0.14173153  0.97778674     1.51700
Co687      Co  0.77485122  0.11197346  0.97413038     1.51600
Co688      Co  0.72485058  0.10672359  0.02636115     1.51500
O689        O  0.74955391  0.12463795  0.00151040    -1.42400
C690        C  0.76532371  0.08617333  0.04939118     1.09100
C691        C  0.73405423  0.09550760  0.94783284     1.09200
C692        C  0.80780734  0.09549480  0.01014026     1.09100
C693        C  0.69069191  0.09686228  0.98911214     1.09100
O694        O  0.36333017  0.51892416  0.69613229    -0.80500
O695        O  0.36549312  0.47616989  0.80221041    -0.80500
O696        O  0.34111320  0.45593307  0.74973013    -0.80500
O697        O  0.33456010  0.53573364  0.74855514    -0.80500
O698        O  0.37369159  0.44091504  0.76894827    -0.80600
O699        O  0.36520001  0.55469856  0.72952577    -0.80500
O700        O  0.33446796  0.49630683  0.78360355    -0.80500
O701        O  0.33569830  0.49399271  0.71423030    -0.80600
C702        C  0.34135776  0.50981856  0.69755011     1.09200
C703        C  0.34251030  0.48233212  0.80098772     1.09100
C704        C  0.35115406  0.43814873  0.76177688     1.09200
C705        C  0.34254747  0.55472178  0.73677908     1.09100
O706        O  0.41274187  0.53610854  0.74902049    -0.80500
O707        O  0.41849129  0.46739951  0.75138738    -0.80600
O708        O  0.38364310  0.47926550  0.69278653    -0.80500
O709        O  0.37873036  0.51856166  0.80631262    -0.80500
O710        O  0.41208647  0.50201330  0.78975533    -0.80600
O711        O  0.41353935  0.50092593  0.70991949    -0.80500
O712        O  0.38161224  0.55238419  0.77100021    -0.80500
O713        O  0.39129649  0.44643125  0.72839205    -0.80600
Co714      Co  0.38864680  0.52511313  0.72354525     1.51500
Co715      Co  0.39201161  0.47405488  0.77565343     1.51700
Co716      Co  0.36293448  0.47123658  0.72377811     1.51600
Co717      Co  0.35780084  0.52332315  0.77481163     1.51500
O718        O  0.37531514  0.49848297  0.74943007    -1.42400
C719        C  0.40437246  0.55255628  0.76393688     1.09100
C720        C  0.41353194  0.44995648  0.73627044     1.09200
C721        C  0.40560552  0.48825701  0.69150328     1.09100
C722        C  0.40180615  0.51313045  0.80802041     1.09100
O723        O  0.77110359  0.88976476  0.44667808    -0.80500
O724        O  0.72855170  0.88888259  0.55254831    -0.80500
O725        O  0.70954652  0.91542159  0.50056839    -0.80500
O726        O  0.79038140  0.91372509  0.49913928    -0.80500
O727        O  0.69264957  0.88350429  0.51924891    -0.80600
O728        O  0.80657525  0.88182400  0.47963544    -0.80500
O729        O  0.75224782  0.91768876  0.53457464    -0.80500
O730        O  0.74820073  0.91888584  0.46549785    -0.80600
C731        C  0.76383318  0.91249713  0.44887899     1.09200
C732        C  0.73676661  0.91128560  0.55127852     1.09100
C733        C  0.69108986  0.90618288  0.51211975     1.09200
C734        C  0.80863234  0.90420728  0.48744362     1.09100
O735        O  0.78348328  0.83581343  0.49692574    -0.80500
O736        O  0.71497812  0.83728211  0.50065308    -0.80600
O737        O  0.72983758  0.87335795  0.44211516    -0.80500
O738        O  0.76935942  0.87072973  0.55647654    -0.80500
O739        O  0.74987317  0.83967296  0.53895227    -0.80600
O740        O  0.74803618  0.84080197  0.45846972    -0.80500
O741        O  0.80233035  0.86420754  0.52053974    -0.80500
O742        O  0.69668825  0.86671727  0.47783747    -0.80600
Co743      Co  0.77470313  0.86233260  0.47280913     1.51500
Co744      Co  0.72402735  0.86264182  0.52548856     1.51700
Co745      Co  0.72348992  0.89322611  0.47409224     1.51600
Co746      Co  0.77617596  0.89141078  0.52512431     1.51500
O747        O  0.74960537  0.87748493  0.49938810    -1.42400
C748        C  0.80047366  0.84180065  0.51233211     1.09100
C749        C  0.69839702  0.84402293  0.48521927     1.09200
C750        C  0.73644108  0.85055105  0.44024162     1.09100
C751        C  0.76164227  0.84825783  0.55758311     1.09100
O752        O  0.08576394  0.53625754  0.25382314    -0.80500
O753        O  0.08609009  0.46537958  0.25446098    -0.80500
O754        O  0.11520274  0.51933410  0.19451316    -0.80500
O755        O  0.12494099  0.48354114  0.30844863    -0.80500
O756        O  0.08504431  0.49981005  0.21400980    -0.80600
O757        O  0.09175431  0.50166224  0.29306430    -0.80500
O758        O  0.11834051  0.44922604  0.27474477    -0.80500
O759        O  0.11362612  0.55383813  0.22877570    -0.80600
C760        C  0.09166918  0.55273096  0.23783349     1.09200
C761        C  0.09495202  0.45008715  0.27036944     1.09100
C762        C  0.09275438  0.51147100  0.19479321     1.09200
C763        C  0.10219206  0.49018292  0.31101941     1.09100
O764        O  0.14093614  0.52440296  0.30227590    -0.80500
O765        O  0.13243673  0.47832932  0.19779116    -0.80600
O766        O  0.16349281  0.54125246  0.24719312    -0.80500
O767        O  0.16438154  0.46184841  0.24827300    -0.80500
O768        O  0.13116760  0.44412498  0.23258628    -0.80600
O769        O  0.13315074  0.55845536  0.26847617    -0.80500
O770        O  0.16932425  0.50210929  0.28196807    -0.80500
O771        O  0.16328259  0.50108269  0.21327271    -0.80600
Co772      Co  0.11288527  0.52761128  0.27712852     1.51500
Co773      Co  0.10907878  0.47456068  0.22707503     1.51700
Co774      Co  0.13892480  0.52654477  0.22348534     1.51600
Co775      Co  0.14383012  0.47655197  0.27578194     1.51500
O776        O  0.12602253  0.50133089  0.25082280    -1.42400
C777        C  0.16347240  0.51717046  0.29928752     1.09100
C778        C  0.15492150  0.48607588  0.19699808     1.09200
C779        C  0.15520034  0.55966345  0.25973921     1.09100
C780        C  0.15436283  0.44309287  0.23768530     1.09100
C781        C  0.48952713  0.49462633  0.52224225     0.01900
C782        C  0.48217127  0.51486835  0.50647617     0.01900
C783        C  0.49766236  0.52190212  0.48594864     0.01900
C784        C  0.51879527  0.50694205  0.47944785     0.01900
C785        C  0.52603483  0.48661418  0.49513709     0.01900
C786        C  0.51063306  0.47966470  0.51571458     0.01900
C787        C  0.01319047  0.50404913  0.02348438     0.01900
C788        C  0.01972260  0.48358749  0.00762399     0.01900
C789        C  0.00416111  0.47712579  0.98702457     0.01900
C790        C  0.98352461  0.49263839  0.98054129     0.01900
C791        C  0.97714711  0.51348369  0.99603028     0.01900
C792        C  0.99279567  0.52000452  0.01676343     0.01900
C793        C  0.07730399  0.54914524  0.11093731    -0.18200
C794        C  0.06704206  0.54775545  0.08672318    -0.20400
C795        C  0.05113734  0.52790481  0.07998780     0.20300
C796        C  0.04525455  0.50948837  0.09813807    -0.03300
C797        C  0.05540017  0.51106640  0.12274793    -0.06400
C798        C  0.07175270  0.53082500  0.12906512     0.20600
C799        C  0.04953646  0.49262854  0.14085752     0.18700
C800        C  0.03351356  0.47284505  0.13418239    -0.17800
C801        C  0.02361788  0.47120097  0.10985422    -0.20100
C802        C  0.02942029  0.48936117  0.09166244     0.20200
C803        C  0.01963181  0.48775034  0.06717104    -0.33100
C804        C  0.02518820  0.50606929  0.04894075     0.00900
C805        C  0.04105419  0.52611745  0.05550797    -0.24400
C806        C  0.08280299  0.53154291  0.15310945    -0.29000
C807        C  0.07755681  0.51293778  0.17120757     0.06600
C808        C  0.06036422  0.49385956  0.16502300    -0.27700
H809        H  0.08976694  0.56451215  0.11543485     0.11300
H810        H  0.07174429  0.56213671  0.07316812     0.12400
H811        H  0.02881866  0.45845198  0.14773049     0.11500
H812        H  0.01145026  0.45562751  0.10523980     0.10700
H813        H  0.00732798  0.47234907  0.06227735     0.16100
H814        H  0.04540418  0.54029731  0.04161533     0.12000
H815        H  0.09603563  0.54628025  0.15755765     0.14900
H816        H  0.05644140  0.47920256  0.17855158     0.14700
C817        C  0.48984619  0.51204098  0.61363659    -0.18200
C818        C  0.47851506  0.51091191  0.63737628    -0.20400
C819        C  0.45552406  0.49858832  0.64068840     0.20300
C820        C  0.44408609  0.48701515  0.61977258    -0.03300
C821        C  0.45550178  0.48822673  0.59572225    -0.06400
C822        C  0.47842940  0.50091209  0.59264941     0.20600
C823        C  0.44378036  0.47705695  0.57471504     0.18700
C824        C  0.42093389  0.46454842  0.57806068    -0.17800
C825        C  0.40968666  0.46332667  0.60180649    -0.20100
C826        C  0.42100781  0.47461453  0.62275873     0.20200
C827        C  0.40931158  0.47420888  0.64645148    -0.33100
C828        C  0.42008907  0.48631007  0.66740956     0.00900
C829        C  0.44350598  0.49815144  0.66433824    -0.24400
C830        C  0.48935169  0.50249489  0.56863230    -0.29000
C831        C  0.47768020  0.49165113  0.54754856     0.06600
C832        C  0.45494265  0.47882351  0.55075736    -0.27700
H833        H  0.50747811  0.52184092  0.61165409     0.11300
H834        H  0.48765256  0.51990623  0.65313120     0.12400
H835        H  0.41162922  0.45584542  0.56224058     0.11500
H836        H  0.39193225  0.45374066  0.60372884     0.10700
H837        H  0.39132074  0.46505359  0.64834881     0.16100
H838        H  0.45207337  0.50758426  0.68016730     0.12000
H839        H  0.50687416  0.51242181  0.56619652     0.14900
H840        H  0.44592820  0.47042148  0.53459951     0.14700
C841        C  0.47841927  0.50602391  0.86064090    -0.18200
C842        C  0.48972328  0.50470327  0.88433449    -0.20400
C843        C  0.47568144  0.50893684  0.90622221     0.20300
C844        C  0.45012297  0.51520940  0.90419493    -0.03300
C845        C  0.43870584  0.51663749  0.88019544    -0.06400
C846        C  0.45284150  0.51165548  0.85832632     0.20600
C847        C  0.41305512  0.52249264  0.87813938     0.18700
C848        C  0.39912538  0.52716880  0.90004132    -0.17800
C849        C  0.41040126  0.52569884  0.92377406    -0.20100
C850        C  0.43586924  0.51957629  0.92613413     0.20200
C851        C  0.44725532  0.51743483  0.94996387    -0.33100
C852        C  0.47265451  0.51063788  0.95210350     0.00900
C853        C  0.48667105  0.50658419  0.93007045    -0.24400
C854        C  0.44103555  0.51163110  0.83464357    -0.29000
C855        C  0.41523401  0.51669606  0.83242294     0.06600
C856        C  0.40161800  0.52285013  0.85432372    -0.27700
H857        H  0.48963809  0.50227739  0.84411640     0.11300
H858        H  0.50942773  0.50002609  0.88555279     0.12400
H859        H  0.37937409  0.53164445  0.89884143     0.11500
H860        H  0.39911077  0.52911351  0.94032032     0.10700
H861        H  0.43638387  0.52082289  0.96679742     0.16100
H862        H  0.50618884  0.50120234  0.93158768     0.12000
H863        H  0.45179763  0.50699015  0.81802881     0.14900
H864        H  0.38180355  0.52697923  0.85300484     0.14700
C865        C  0.92072837  0.58181704  0.96534074    -0.18200
C866        C  0.89697761  0.59308036  0.96433864    -0.20400
C867        C  0.87628179  0.58185652  0.97610784     0.20300
C868        C  0.87959886  0.55896327  0.98893928    -0.03300
C869        C  0.90368751  0.54764633  0.99011211    -0.06400
C870        C  0.92438244  0.55913890  0.97826342     0.20600
C871        C  0.90708244  0.52497692  0.00334329     0.18700
C872        C  0.88638676  0.51367803  0.01499412    -0.17800
C873        C  0.86260028  0.52483061  0.01378668    -0.20100
C874        C  0.85894784  0.54755039  0.00090167     0.20200
C875        C  0.83517367  0.55926139  0.00020618    -0.33100
C876        C  0.83169519  0.58243728  0.98785043     0.00900
C877        C  0.85248647  0.59337453  0.97564004    -0.24400
C878        C  0.94832388  0.54789414  0.97975149    -0.29000
C879        C  0.95189351  0.52552413  0.99333640     0.06600
C880        C  0.93111337  0.51415408  0.00491612    -0.27700
H881        H  0.93631017  0.59098421  0.95615377     0.11300
H882        H  0.89482393  0.61069779  0.95442103     0.12400
H883        H  0.88862095  0.49623808  0.02520749     0.11500
H884        H  0.84705951  0.51574487  0.02312380     0.10700
H885        H  0.81957547  0.55070044  0.00995036     0.16100
H886        H  0.85031689  0.61125805  0.96619553     0.12000
H887        H  0.96416187  0.55658255  0.97054522     0.14900
H888        H  0.93377120  0.49684309  0.01528032     0.14700
C889        C  0.60919287  0.52395339  0.97354377    -0.18200
C890        C  0.63311503  0.53458974  0.97477598    -0.20400
C891        C  0.63856730  0.55331055  0.99249442     0.20300
C892        C  0.61958232  0.56141280  0.00910613    -0.03300
C893        C  0.59537229  0.55053070  0.00796155    -0.06400
C894        C  0.59022525  0.53172309  0.99006973     0.20600
C895        C  0.57633924  0.55851223  0.02461640     0.18700
C896        C  0.58175127  0.57747086  0.04212732    -0.17800
C897        C  0.60562623  0.58840788  0.04308872    -0.20100
C898        C  0.62470161  0.58052711  0.02667575     0.20200
C899        C  0.64862147  0.59169631  0.02722212    -0.33100
C900        C  0.66770496  0.58388437  0.01058357     0.00900
C901        C  0.66249917  0.56436513  0.99351867    -0.24400
C902        C  0.56624446  0.52098087  0.98898195    -0.29000
C903        C  0.54718031  0.52860481  0.00554346     0.06600
C904        C  0.55232801  0.54742651  0.02338135    -0.27700
H905        H  0.60553246  0.50957991  0.95963668     0.11300
H906        H  0.64735521  0.52822095  0.96175789     0.12400
H907        H  0.56746890  0.58393080  0.05504933     0.11500
H908        H  0.60916043  0.60309864  0.05669433     0.10700
H909        H  0.65225866  0.60680462  0.04034988     0.16100
H910        H  0.67678397  0.55842136  0.98033561     0.12000
H911        H  0.56231698  0.50649939  0.97523599     0.14900
H912        H  0.53768289  0.55340502  0.03613603     0.14700
C913        C  0.10341440  0.46879425  0.40210110    -0.18200
C914        C  0.09195623  0.46892027  0.42583327    -0.20400
C915        C  0.06712205  0.47717411  0.42872823     0.20300
C916        C  0.05365683  0.48500334  0.40727885    -0.03300
C917        C  0.06525098  0.48490158  0.38329069    -0.06400
C918        C  0.09030876  0.47692299  0.38069995     0.20600
C919        C  0.05188283  0.49324157  0.36200060     0.18700
C920        C  0.02695122  0.50114317  0.36479416    -0.17800
C921        C  0.01548371  0.50116361  0.38843563    -0.20100
C922        C  0.02871316  0.49334405  0.40981767     0.20200
C923        C  0.01756498  0.49422855  0.43371100    -0.33100
C924        C  0.03093809  0.48709605  0.45532251     0.00900
C925        C  0.05564909  0.47816269  0.45263725    -0.24400
C926        C  0.10194959  0.47774596  0.35691028    -0.29000
C927        C  0.08896606  0.48670220  0.33559139     0.06600
C928        C  0.06376515  0.49406670  0.33839859    -0.27700
H929        H  0.12267481  0.46258948  0.40053714     0.11300
H930        H  0.10264349  0.46280560  0.44199387     0.12400
H931        H  0.01635650  0.50757115  0.34869265     0.11500
H932        H  0.99630011  0.50759361  0.39003495     0.10700
H933        H  0.99853950  0.50108601  0.43565992     0.16100
H934        H  0.06595298  0.47223270  0.46909827     0.12000
H935        H  0.12136312  0.47207534  0.35516475     0.14900
H936        H  0.05349386  0.50098749  0.32228060     0.14700
C937        C  0.58471112  0.42306961  0.45900390    -0.18200
C938        C  0.60876920  0.41260676  0.45729412    -0.20400
C939        C  0.62885982  0.42293513  0.47079498     0.20300
C940        C  0.62468668  0.44421668  0.48597058    -0.03300
C941        C  0.60029085  0.45468560  0.48786696    -0.06400
C942        C  0.58016021  0.44402005  0.47435755     0.20600
C943        C  0.59599893  0.47558557  0.50355331     0.18700
C944        C  0.61613387  0.48607720  0.51684574    -0.17800
C945        C  0.64024026  0.47577450  0.51490894    -0.20100
C946        C  0.64474546  0.45471027  0.49967672     0.20200
C947        C  0.66870236  0.44348494  0.49858059    -0.33100
C948        C  0.67284517  0.42159148  0.48424948     0.00900
C949        C  0.65281232  0.41186100  0.46998100    -0.24400
C950        C  0.55588359  0.45436421  0.47659750    -0.29000
C951        C  0.55148932  0.47507213  0.49240080     0.06600
C952        C  0.57165699  0.48551466  0.50580163    -0.27700
H953        H  0.56958362  0.41459255  0.44847883     0.11300
H954        H  0.61160998  0.39623446  0.44555442     0.12400
H955        H  0.61320195  0.50218345  0.52892569     0.11500
H956        H  0.65532490  0.48411889  0.52560435     0.10700
H957        H  0.68377460  0.45108948  0.50984618     0.16100
H958        H  0.65560514  0.39501952  0.45889368     0.12000
H959        H  0.54041550  0.44631747  0.46621662     0.14900
H960        H  0.56831468  0.50154175  0.51790839     0.14700
C961        C  0.92481756  0.41351189  0.53188541    -0.18200
C962        C  0.90100895  0.40251658  0.53303633    -0.20400
C963        C  0.87989014  0.41515551  0.52361749     0.20300
C964        C  0.88281747  0.43927650  0.51316201    -0.03300
C965        C  0.90692889  0.45043197  0.51202639    -0.06400
C966        C  0.92807559  0.43742016  0.52131792     0.20600
C967        C  0.90990337  0.47442428  0.50127622     0.18700
C968        C  0.88877461  0.48713042  0.49198279    -0.17800
C969        C  0.86498212  0.47607357  0.49303444    -0.20100
C970        C  0.86175629  0.45206704  0.50344490     0.20200
C971        C  0.83800699  0.44042649  0.50377306    -0.33100
C972        C  0.83492636  0.41605005  0.51368054     0.00900
C973        C  0.85606386  0.40382047  0.52394835    -0.24400
C974        C  0.95206668  0.44840624  0.51964931    -0.29000
C975        C  0.95518400  0.47227256  0.50879996     0.06600
C976        C  0.93394848  0.48514019  0.49974461    -0.27700
H977        H  0.94074613  0.40319964  0.53912833     0.11300
H978        H  0.89915708  0.38395067  0.54110242     0.12400
H979        H  0.89067575  0.50559038  0.48368738     0.11500
H980        H  0.84910509  0.48624453  0.48548275     0.10700
H981        H  0.82205856  0.45010442  0.49572478     0.16100
H982        H  0.85417815  0.38503968  0.53151259     0.12000
H983        H  0.96833114  0.43838335  0.52656443     0.14900
H984        H  0.93628093  0.50344823  0.49119549     0.14700
C985        C  0.73013102  0.78158934  0.61441953    -0.18200
C986        C  0.72869465  0.77064238  0.63828899    -0.20400
C987        C  0.74401149  0.77913036  0.65794564     0.20300
C988        C  0.76112115  0.79874000  0.65341149    -0.03300
C989        C  0.76243024  0.80996310  0.62927078    -0.06400
C990        C  0.74681819  0.80136559  0.60970647     0.20600
C991        C  0.77903336  0.83003294  0.62485270     0.18700
C992        C  0.79456488  0.83829672  0.64446655    -0.17800
C993        C  0.79347663  0.82701706  0.66825146    -0.20100
C994        C  0.77670356  0.80732533  0.67304609     0.20200
C995        C  0.77507698  0.79621250  0.69708409    -0.33100
C996        C  0.75781391  0.77684152  0.70175668     0.00900
C997        C  0.74239848  0.76845459  0.68205186    -0.24400
C998        C  0.74768244  0.81305657  0.58598513    -0.29000
C999        C  0.76355319  0.83370081  0.58155602     0.06600
C1000       C  0.77940218  0.84183151  0.60113155    -0.27700
H1001       H  0.71795719  0.77474112  0.59968440     0.11300
H1002       H  0.71548324  0.75556599  0.64140484     0.12400
H1003       H  0.80748482  0.85364555  0.64146313     0.11500
H1004       H  0.80562235  0.83388597  0.68299534     0.10700
H1005       H  0.78697657  0.80273435  0.71219422     0.16100
H1006       H  0.72913534  0.75349095  0.68557690     0.12000
H1007       H  0.73521094  0.80670694  0.57126529     0.14900
H1008       H  0.79168912  0.85769569  0.59806540     0.14700
C1009       C  0.77939964  0.71551760  0.88001581    -0.18200
C1010       C  0.78029237  0.72512444  0.85553347    -0.20400
C1011       C  0.76122892  0.71971492  0.83820887     0.20300
C1012       C  0.74104784  0.70443976  0.84564975    -0.03300
C1013       C  0.74023707  0.69456599  0.87039905    -0.06400
C1014       C  0.75948704  0.70016964  0.88770077     0.20600
C1015       C  0.72037096  0.67880912  0.87768450     0.18700
C1016       C  0.70124631  0.67350055  0.86038141    -0.17800
C1017       C  0.70190624  0.68347918  0.83601720    -0.20100
C1018       C  0.72178355  0.69888252  0.82833577     0.20200
C1019       C  0.72278041  0.70876735  0.80372350    -0.33100
C1020       C  0.74285252  0.72414274  0.79620240     0.00900
C1021       C  0.76200069  0.72936016  0.81363190    -0.24400
C1022       C  0.75882867  0.68983837  0.91211046    -0.29000
C1023       C  0.73951020  0.67337445  0.91928859     0.06600
C1024       C  0.72026664  0.66817416  0.90189682    -0.27700
H1025       H  0.79442833  0.71995828  0.89290692     0.11300
H1026       H  0.79595741  0.73681279  0.85013512     0.12400
H1027       H  0.68578480  0.66148934  0.86565884     0.11500
H1028       H  0.68690498  0.67900406  0.82310912     0.10700
H1029       H  0.70808990  0.70441886  0.79042014     0.16100
H1030       H  0.77747595  0.74122964  0.80801913     0.12000
H1031       H  0.77398499  0.69362256  0.92507719     0.14900
H1032       H  0.70533831  0.65546273  0.90713126     0.14700
C1033       C  0.74262040  0.22399616  0.11556621    -0.18200
C1034       C  0.74312927  0.23525013  0.13932391    -0.20400
C1035       C  0.73868575  0.22099593  0.16101463     0.20300
C1036       C  0.73302426  0.19526007  0.15870704    -0.03300
C1037       C  0.73262603  0.18383797  0.13465755    -0.06400
C1038       C  0.73775712  0.19823079  0.11301507     0.20600
C1039       C  0.72770283  0.15794067  0.13234160     0.18700
C1040       C  0.72277579  0.14381187  0.15405240    -0.17800
C1041       C  0.72303679  0.15514514  0.17783394    -0.20100
C1042       C  0.72832535  0.18083483  0.18043689     0.20200
C1043       C  0.72950042  0.19224476  0.20433117    -0.33100
C1044       C  0.73612546  0.21771820  0.20680054     0.00900
C1045       C  0.74045029  0.23191054  0.18495910    -0.24400
C1046       C  0.73863188  0.18652827  0.08930887    -0.29000
C1047       C  0.73446764  0.16054097  0.08682702     0.06600
C1048       C  0.72846893  0.14651763  0.10847958    -0.27700
H1049       H  0.74646575  0.23539213  0.09919015     0.11300
H1050       H  0.74733498  0.25508620  0.14075340     0.12400
H1051       H  0.71899622  0.12388498  0.15267169     0.11500
H1052       H  0.71944698  0.14371260  0.19424437     0.10700
H1053       H  0.72567243  0.18124976  0.22095712     0.16100
H1054       H  0.74586084  0.25142953  0.18670100     0.12000
H1055       H  0.74313906  0.19756846  0.07284721     0.14900
H1056       H  0.72528583  0.12648901  0.10691676     0.14700
C1057       C  0.73071911  0.27571035  0.38661259    -0.18200
C1058       C  0.72914890  0.26490333  0.36265521    -0.20400
C1059       C  0.74475397  0.27311429  0.34310495     0.20300
C1060       C  0.76236503  0.29220732  0.34786873    -0.03300
C1061       C  0.76390370  0.30319739  0.37212945    -0.06400
C1062       C  0.74789174  0.29501907  0.39156087     0.20600
C1063       C  0.78105553  0.32273199  0.37675699     0.18700
C1064       C  0.79689968  0.33068871  0.35727069    -0.17800
C1065       C  0.79547341  0.31974582  0.33334069    -0.20100
C1066       C  0.77812509  0.30062953  0.32830310     0.20200
C1067       C  0.77603048  0.29003000  0.30405838    -0.33100
C1068       C  0.75832075  0.27112477  0.29915627     0.00900
C1069       C  0.74285656  0.26276644  0.31885073    -0.24400
C1070       C  0.74876091  0.30678322  0.41531410    -0.29000
C1071       C  0.76512213  0.32702394  0.41988293     0.06600
C1072       C  0.78155272  0.33447336  0.40050106    -0.27700
H1073       H  0.71823820  0.26915850  0.40121786     0.11300
H1074       H  0.71553662  0.25022591  0.35936179     0.12400
H1075       H  0.81024440  0.34563210  0.36045436     0.11500
H1076       H  0.80779289  0.32645211  0.31866950     0.10700
H1077       H  0.78786208  0.29668918  0.28896969     0.16100
H1078       H  0.72918093  0.24822066  0.31514994     0.12000
H1079       H  0.73587649  0.30091970  0.42987041     0.14900
H1080       H  0.79427481  0.34997322  0.40365145     0.14700
C1081       C  0.71485922  0.41712241  0.33414983    -0.18200
C1082       C  0.72562838  0.40618350  0.35530963    -0.20400
C1083       C  0.72662404  0.41946471  0.37801761     0.20300
C1084       C  0.71781407  0.44438686  0.37932176    -0.03300
C1085       C  0.70696179  0.45543351  0.35796284    -0.06400
C1086       C  0.70499341  0.44146292  0.33547968     0.20600
C1087       C  0.69683365  0.47987406  0.35947454     0.18700
C1088       C  0.69864391  0.49342312  0.38200786    -0.17800
C1089       C  0.70950755  0.48244666  0.40324700    -0.20100
C1090       C  0.71866324  0.45775208  0.40226699     0.20200
C1091       C  0.72745469  0.44567798  0.42400535    -0.33100
C1092       C  0.73473721  0.42040487  0.42284488     0.00900
C1093       C  0.73510038  0.40774839  0.39974490    -0.24400
C1094       C  0.69193393  0.45150485  0.31516483    -0.29000
C1095       C  0.68079914  0.47512669  0.31710196     0.06600
C1096       C  0.68386845  0.48967188  0.33883654    -0.27700
H1097       H  0.71353648  0.40627354  0.31698480     0.11300
H1098       H  0.73247659  0.38705265  0.35413055     0.12400
H1099       H  0.69100809  0.51223344  0.38340662     0.11500
H1100       H  0.71007308  0.49299710  0.42062596     0.10700
H1101       H  0.72720073  0.45532273  0.44192534     0.16100
H1102       H  0.74112773  0.38829245  0.39890688     0.12000
H1103       H  0.68938292  0.44050052  0.29833438     0.14900
H1104       H  0.67486539  0.50789815  0.34016691     0.14700
C1105       C  0.69720789  0.50533554  0.11732937    -0.18200
C1106       C  0.70672653  0.51638743  0.09557771    -0.20400
C1107       C  0.71603519  0.54095157  0.09624140     0.20300
C1108       C  0.71696468  0.55405338  0.11935418    -0.03300
C1109       C  0.70744936  0.54292316  0.14124724    -0.06400
C1110       C  0.69694144  0.51868991  0.14002676     0.20600
C1111       C  0.70687053  0.55670531  0.16394984     0.18700
C1112       C  0.71721738  0.58083802  0.16492554    -0.17800
C1113       C  0.72675981  0.59185531  0.14320622    -0.20100
C1114       C  0.72594203  0.57887258  0.12030076     0.20200
C1115       C  0.73254155  0.59081134  0.09807382    -0.33100
C1116       C  0.73019190  0.57840619  0.07492723     0.00900
C1117       C  0.72305735  0.55318946  0.07405121    -0.24400
C1118       C  0.68480151  0.50898917  0.16107626    -0.29000
C1119       C  0.68266593  0.52344608  0.18292426     0.06600
C1120       C  0.69441052  0.54678508  0.18474417    -0.27700
H1121       H  0.68923341  0.48668502  0.11620622     0.11300
H1122       H  0.70597640  0.50606550  0.07807032     0.12400
H1123       H  0.71704753  0.59153407  0.18223674     0.11500
H1124       H  0.73386851  0.61087700  0.14411373     0.10700
H1125       H  0.73856946  0.61022548  0.09864828     0.16100
H1126       H  0.72148048  0.54373045  0.05610242     0.12000
H1127       H  0.67533424  0.49102814  0.15989954     0.14900
H1128       H  0.69258216  0.55775839  0.20174527     0.14700
C1129       C  0.51575079  0.51052125  0.11132913    -0.18200
C1130       C  0.52771696  0.51017284  0.13475614    -0.20400
C1131       C  0.55216771  0.50073350  0.13719759     0.20300
C1132       C  0.56467981  0.49167078  0.11566376    -0.03300
C1133       C  0.55258437  0.49208625  0.09190228    -0.06400
C1134       C  0.52796771  0.50147481  0.08978327     0.20600
C1135       C  0.56516718  0.48324867  0.07028516     0.18700
C1136       C  0.58971227  0.47406225  0.07270811    -0.17800
C1137       C  0.60161971  0.47356473  0.09619420    -0.20100
C1138       C  0.58930135  0.48231383  0.11782606     0.20200
C1139       C  0.60122821  0.48203910  0.14148213    -0.33100
C1140       C  0.58895938  0.49109221  0.16318872     0.00900
C1141       C  0.56432031  0.50036582  0.16072721    -0.24400
C1142       C  0.51608900  0.50186479  0.06616902    -0.29000
C1143       C  0.52847541  0.49322707  0.04446033     0.06600
C1144       C  0.55307739  0.48393949  0.04668416    -0.27700
H1145       H  0.49689065  0.51791774  0.11006514     0.11300
H1146       H  0.51780321  0.51730952  0.15100769     0.12400
H1147       H  0.59974907  0.46725024  0.05639699     0.11500
H1148       H  0.62056061  0.46637089  0.09741776     0.10700
H1149       H  0.62020918  0.47497181  0.14292624     0.16100
H1150       H  0.55461916  0.50749865  0.17711602     0.12000
H1151       H  0.49726959  0.50933372  0.06451498     0.14900
H1152       H  0.56280050  0.47748280  0.03003258     0.14700
C1153       C  0.59141734  0.52704401  0.42421279    -0.18200
C1154       C  0.60258904  0.52729707  0.40041368    -0.20400
C1155       C  0.58920240  0.51946485  0.37912114     0.20300
C1156       C  0.56423657  0.51144217  0.38182092    -0.03300
C1157       C  0.55288359  0.51131343  0.40589248    -0.06400
C1158       C  0.56658679  0.51904536  0.42722612     0.20600
C1159       C  0.52794657  0.50316674  0.40863496     0.18700
C1160       C  0.51458448  0.49529930  0.38733529    -0.17800
C1161       C  0.52586301  0.49529286  0.36356493    -0.20100
C1162       C  0.55072628  0.50323393  0.36055702     0.20200
C1163       C  0.56241359  0.50274418  0.33679556    -0.33100
C1164       C  0.58744268  0.51055352  0.33393872     0.00900
C1165       C  0.60051874  0.51914417  0.35529225    -0.24400
C1166       C  0.55535183  0.51832270  0.45117775    -0.29000
C1167       C  0.53058785  0.50988975  0.45408623     0.06600
C1168       C  0.51696106  0.50264738  0.43264737    -0.27700
H1169       H  0.60227239  0.53299680  0.44031056     0.11300
H1170       H  0.62182413  0.53344953  0.39869442     0.12400
H1171       H  0.49541975  0.48894413  0.38908735     0.11500
H1172       H  0.51514913  0.48893066  0.34752820     0.10700
H1173       H  0.55212686  0.49603672  0.32060903     0.16100
H1174       H  0.61982610  0.52508174  0.35352278     0.12000
H1175       H  0.56588668  0.52405221  0.46756861     0.14900
H1176       H  0.49791260  0.49602354  0.43482554     0.14700
C1177       C  0.66085621  0.32301617  0.27620037    -0.18200
C1178       C  0.64981280  0.34692391  0.27574492    -0.20400
C1179       C  0.66379301  0.36814224  0.26882223     0.20300
C1180       C  0.68922802  0.36521301  0.26243539    -0.03300
C1181       C  0.70043366  0.34100230  0.26296259    -0.06400
C1182       C  0.68614205  0.31977861  0.26978271     0.20600
C1183       C  0.72581333  0.33800869  0.25632646     0.18700
C1184       C  0.73981231  0.35923565  0.24949800    -0.17800
C1185       C  0.72872000  0.38314145  0.24892533    -0.20100
C1186       C  0.70337604  0.38638870  0.25519853     0.20200
C1187       C  0.69188445  0.41031038  0.25405595    -0.33100
C1188       C  0.66639787  0.41345929  0.26030016     0.00900
C1189       C  0.65265702  0.39212809  0.26787450    -0.24400
C1190       C  0.69722772  0.29569769  0.26961340    -0.29000
C1191       C  0.72235459  0.29245115  0.26230030     0.06600
C1192       C  0.73657928  0.31382445  0.25609477    -0.27700
H1193       H  0.64953003  0.30699877  0.28140495     0.11300
H1194       H  0.63022214  0.34878973  0.28065385     0.12400
H1195       H  0.75933889  0.35732217  0.24435604     0.11500
H1196       H  0.73996158  0.39910040  0.24337913     0.10700
H1197       H  0.70274075  0.42643484  0.24820042     0.16100
H1198       H  0.63302365  0.39406634  0.27261708     0.12000
H1199       H  0.68621910  0.27943756  0.27472092     0.14900
H1200       H  0.75590637  0.31146913  0.25034629     0.14700
C1201       C  0.75292933  0.76481410  0.36243851    -0.18200
C1202       C  0.75193373  0.77597269  0.38622867    -0.20400
C1203       C  0.74192033  0.80016758  0.38933369     0.20300
C1204       C  0.73214112  0.81292186  0.36826155    -0.03300
C1205       C  0.73318522  0.80164304  0.34414429    -0.06400
C1206       C  0.74394078  0.77761652  0.34124729     0.20600
C1207       C  0.72398823  0.81460726  0.32290160     0.18700
C1208       C  0.71326015  0.83848643  0.32616412    -0.17800
C1209       C  0.71225741  0.84965357  0.35002037    -0.20100
C1210       C  0.72195010  0.83718862  0.37115999     0.20200
C1211       C  0.72234656  0.84885240  0.39494222    -0.33100
C1212       C  0.73304579  0.83671524  0.41595714     0.00900
C1213       C  0.74226607  0.81207873  0.41296309    -0.24400
C1214       C  0.74594195  0.76697525  0.31719728    -0.29000
C1215       C  0.73738473  0.77991626  0.29585030     0.06600
C1216       C  0.72606047  0.80361756  0.29883552    -0.27700
H1217       H  0.76110163  0.74627605  0.36056108     0.11300
H1218       H  0.75940723  0.76581363  0.40216873     0.12400
H1219       H  0.70596797  0.84871688  0.31018621     0.11500
H1220       H  0.70425226  0.86826622  0.35186345     0.10700
H1221       H  0.71509531  0.86777243  0.39686470     0.16100
H1222       H  0.75043537  0.80242096  0.42888138     0.12000
H1223       H  0.75449474  0.74863060  0.31494050     0.14900
H1224       H  0.71910324  0.81349358  0.28248979     0.14700
C1225       C  0.77889276  0.66531042  0.17429814    -0.18200
C1226       C  0.78014146  0.65411111  0.15048801    -0.20400
C1227       C  0.77055333  0.66649748  0.12926450     0.20300
C1228       C  0.75931707  0.69029033  0.13216184    -0.03300
C1229       C  0.75793446  0.70155535  0.15624731    -0.06400
C1230       C  0.76796211  0.68910708  0.17742286     0.20600
C1231       C  0.74644957  0.72524217  0.15911678     0.18700
C1232       C  0.73639642  0.73740707  0.13802815    -0.17800
C1233       C  0.73786042  0.72632116  0.11422912    -0.20100
C1234       C  0.74931981  0.70279089  0.11103402     0.20200
C1235       C  0.75056551  0.69141509  0.08717493    -0.33100
C1236       C  0.76151618  0.66752832  0.08404478     0.00900
C1237       C  0.77167942  0.65535720  0.10529788    -0.24400
C1238       C  0.76686544  0.70068954  0.20124549    -0.29000
C1239       C  0.75571671  0.72447371  0.20406903     0.06600
C1240       C  0.74522087  0.73637298  0.18298894    -0.27700
H1241       H  0.78652417  0.65534618  0.19028539     0.11300
H1242       H  0.78864931  0.63572027  0.14867141     0.12400
H1243       H  0.72744816  0.75557987  0.13992517     0.11500
H1244       H  0.72995684  0.73616032  0.09829586     0.10700
H1245       H  0.74242237  0.70091417  0.07114735     0.16100
H1246       H  0.77997284  0.63687542  0.10333075     0.12000
H1247       H  0.77456353  0.69128026  0.21754105     0.14900
H1248       H  0.73617189  0.75447484  0.18526224     0.14700
C1249       C  0.65620104  0.64851210  0.21356498    -0.18200
C1250       C  0.66679599  0.67252979  0.21432275    -0.20400
C1251       C  0.68865144  0.67700516  0.22819380     0.20300
C1252       C  0.69984075  0.65699596  0.24157625    -0.03300
C1253       C  0.68916223  0.63269849  0.24075279    -0.06400
C1254       C  0.66724792  0.62847756  0.22666192     0.20600
C1255       C  0.70030741  0.61271004  0.25415181     0.18700
C1256       C  0.72193158  0.61728017  0.26839506    -0.17800
C1257       C  0.73247807  0.64132620  0.26925479    -0.20100
C1258       C  0.72164629  0.66126633  0.25584048     0.20200
C1259       C  0.73220439  0.68538557  0.25644144    -0.33100
C1260       C  0.72134244  0.70529901  0.24293943     0.00900
C1261       C  0.69949564  0.70107681  0.22894826    -0.24400
C1262       C  0.65651947  0.60442292  0.22620231    -0.29000
C1263       C  0.66729848  0.58436545  0.23968010     0.06600
C1264       C  0.68941865  0.58865071  0.25339518    -0.27700
H1265       H  0.63929293  0.64561500  0.20273809     0.11300
H1266       H  0.65787690  0.68762592  0.20403083     0.12400
H1267       H  0.73068018  0.60224893  0.27893023     0.11500
H1268       H  0.74916627  0.64431856  0.28039429     0.10700
H1269       H  0.74891231  0.68879606  0.26746217     0.16100
H1270       H  0.69099884  0.71652135  0.21879560     0.12000
H1271       H  0.63946112  0.60142385  0.21562250     0.14900
H1272       H  0.69777100  0.57345834  0.26403677     0.14700
C1273       C  0.18012840  0.00876523  0.61012947    -0.18200
C1274       C  0.19118486  0.01930912  0.58885411    -0.20400
C1275       C  0.20710171  0.04007228  0.59117204     0.20300
C1276       C  0.21280700  0.04962756  0.61530071    -0.03300
C1277       C  0.20180033  0.03893487  0.63671828    -0.06400
C1278       C  0.18492740  0.01880081  0.63399213     0.20600
C1279       C  0.20656645  0.04930598  0.66070821     0.18700
C1280       C  0.22293625  0.06966940  0.66312974    -0.17800
C1281       C  0.23374203  0.08038349  0.64185540    -0.20100
C1282       C  0.22836904  0.07079240  0.61793597     0.20200
C1283       C  0.23712688  0.08288946  0.59652009    -0.33100
C1284       C  0.23051100  0.07420234  0.57259829     0.00900
C1285       C  0.21626067  0.05238059  0.56981299    -0.24400
C1286       C  0.17211882  0.01000675  0.65502523    -0.29000
C1287       C  0.17606989  0.02104118  0.67854637     0.06600
C1288       C  0.19379444  0.04001700  0.68162467    -0.27700
H1289       H  0.16724983  0.99324293  0.60785595     0.11300
H1290       H  0.18665762  0.01174350  0.57053485     0.12400
H1291       H  0.22674154  0.07780493  0.68138028     0.11500
H1292       H  0.24572295  0.09662607  0.64403768     0.10700
H1293       H  0.24811111  0.09990099  0.59838517     0.16100
H1294       H  0.21097554  0.04607848  0.55120321     0.12000
H1295       H  0.15821732  0.99534712  0.65298780     0.14900
H1296       H  0.19651819  0.04844591  0.69993206     0.14700
C1297       C  0.55617906  0.41036537  0.15884064    -0.18200
C1298       C  0.54535597  0.38915496  0.14824557    -0.20400
C1299       C  0.53666247  0.36974515  0.16367454     0.20300
C1300       C  0.53752336  0.37202992  0.18995820    -0.03300
C1301       C  0.54789785  0.39372977  0.20066299    -0.06400
C1302       C  0.55797000  0.41251658  0.18495110     0.20600
C1303       C  0.54950404  0.39600537  0.22698675     0.18700
C1304       C  0.54001171  0.37681880  0.24231119    -0.17800
C1305       C  0.52995222  0.35503280  0.23161825    -0.20100
C1306       C  0.52904899  0.35221989  0.20544853     0.20200
C1307       C  0.52078134  0.32970973  0.19439556    -0.33100
C1308       C  0.52115327  0.32717962  0.16819139     0.00900
C1309       C  0.52811856  0.34764424  0.15310228    -0.24400
C1310       C  0.57102259  0.43239841  0.19554584    -0.29000
C1311       C  0.57347805  0.43428155  0.22154922     0.06600
C1312       C  0.56191952  0.41671769  0.23734970    -0.27700
H1313       H  0.56368296  0.42478658  0.14664316     0.11300
H1314       H  0.54459661  0.38752468  0.12798520     0.12400
H1315       H  0.54109156  0.37831216  0.26255707     0.11500
H1316       H  0.52341342  0.34016155  0.24380702     0.10700
H1317       H  0.51501689  0.31406197  0.20600893     0.16100
H1318       H  0.52758804  0.34619703  0.13279875     0.12000
H1319       H  0.58046766  0.44561215  0.18349430     0.14900
H1320       H  0.56440095  0.41807288  0.25749988     0.14700
C1321       C  0.61301397  0.23237951  0.02785373    -0.18200
C1322       C  0.63648051  0.22383218  0.01978855    -0.20400
C1323       C  0.64773457  0.20296906  0.03128916     0.20300
C1324       C  0.63512937  0.19052424  0.05097098    -0.03300
C1325       C  0.61114998  0.19836320  0.05824043    -0.06400
C1326       C  0.60021187  0.21977147  0.04707042     0.20600
C1327       C  0.59836785  0.18507579  0.07717085     0.18700
C1328       C  0.60951446  0.16435814  0.08885080    -0.17800
C1329       C  0.63360237  0.15710248  0.08221847    -0.20100
C1330       C  0.64639104  0.17001942  0.06330057     0.20200
C1331       C  0.66971452  0.16176144  0.05556930    -0.33100
C1332       C  0.68097241  0.17201959  0.03415842     0.00900
C1333       C  0.67070461  0.19342025  0.02273493    -0.24400
C1334       C  0.57745444  0.22894930  0.05649425    -0.29000
C1335       C  0.56590070  0.21663107  0.07665753     0.06600
C1336       C  0.57536532  0.19374245  0.08543353    -0.27700
H1337       H  0.60490490  0.24885029  0.01910813     0.11300
H1338       H  0.64586679  0.23358749  0.00465660     0.12400
H1339       H  0.59984951  0.15417543  0.10353379     0.11500
H1340       H  0.64206975  0.14114606  0.09157214     0.10700
H1341       H  0.67798832  0.14556923  0.06475669     0.16100
H1342       H  0.67951733  0.20138767  0.00625083     0.12000
H1343       H  0.56998038  0.24661940  0.04970665     0.14900
H1344       H  0.56610685  0.18406459  0.10074100     0.14700
C1345       C  0.51950415  0.39008471  0.01429790    -0.18200
C1346       C  0.51847007  0.36592384  0.02481265    -0.20400
C1347       C  0.50358925  0.36108675  0.04601082     0.20300
C1348       C  0.48947616  0.38098144  0.05650251    -0.03300
C1349       C  0.49053447  0.40547301  0.04587315    -0.06400
C1350       C  0.50569664  0.41003670  0.02471855     0.20600
C1351       C  0.47659953  0.42540880  0.05656005     0.18700
C1352       C  0.46164290  0.42056992  0.07766837    -0.17800
C1353       C  0.46065208  0.39643770  0.08818232    -0.20100
C1354       C  0.47456608  0.37652448  0.07783106     0.20200
C1355       C  0.47420146  0.35243180  0.08879572    -0.33100
C1356       C  0.48863591  0.33240513  0.07895979     0.00900
C1357       C  0.50301408  0.33694123  0.05719696    -0.24400
C1358       C  0.50686602  0.43443802  0.01445049    -0.29000
C1359       C  0.49309378  0.45447873  0.02497042     0.06600
C1360       C  0.47795439  0.44977024  0.04606177    -0.27700
H1361       H  0.53125154  0.39319094  0.99802962     0.11300
H1362       H  0.52948812  0.35102478  0.01642698     0.12400
H1363       H  0.45077750  0.43551600  0.08617106     0.11500
H1364       H  0.44908305  0.39339021  0.10458950     0.10700
H1365       H  0.46304569  0.34946025  0.10551221     0.16100
H1366       H  0.51441277  0.32196538  0.04947300     0.12000
H1367       H  0.51855860  0.43794145  0.99820521     0.14900
H1368       H  0.46734513  0.46505996  0.05428690     0.14700
C1369       C  0.61103230  0.23517668  0.22595583    -0.18200
C1370       C  0.63473577  0.23312847  0.23709235    -0.20400
C1371       C  0.65549072  0.24553724  0.22677477     0.20300
C1372       C  0.65211086  0.26082324  0.20543118    -0.03300
C1373       C  0.62813021  0.26262474  0.19393694    -0.06400
C1374       C  0.60755837  0.24949994  0.20409767     0.20600
C1375       C  0.62491568  0.27696958  0.17192799     0.18700
C1376       C  0.64549428  0.29026811  0.16227319    -0.17800
C1377       C  0.66908466  0.28884131  0.17387736    -0.20100
C1378       C  0.67276891  0.27384337  0.19525640     0.20200
C1379       C  0.69671693  0.27127415  0.20636925    -0.33100
C1380       C  0.70039922  0.25518602  0.22706133     0.00900
C1381       C  0.67957309  0.24258272  0.23718804    -0.24400
C1382       C  0.58411787  0.25019739  0.19182694    -0.29000
C1383       C  0.58090643  0.26337796  0.16907180     0.06600
C1384       C  0.60145297  0.27714443  0.15958753    -0.27700
H1385       H  0.59548795  0.22507053  0.23416531     0.11300
H1386       H  0.63689221  0.22152734  0.25364368     0.12400
H1387       H  0.64343150  0.30155931  0.14549868     0.11500
H1388       H  0.68459523  0.29910258  0.16579852     0.10700
H1389       H  0.71252732  0.28139254  0.19870821     0.16100
H1390       H  0.68220393  0.23047116  0.25331891     0.12000
H1391       H  0.56866740  0.23946973  0.19941983     0.14900
H1392       H  0.59937777  0.28750890  0.14221782     0.14700
C1393       C  0.63744655  0.02153250  0.00469616    -0.18200
C1394       C  0.61378189  0.01032892  0.00664323    -0.20400
C1395       C  0.59203472  0.02364307  0.00003198     0.20300
C1396       C  0.59421692  0.04848263  0.99121242    -0.03300
C1397       C  0.61817032  0.05997064  0.98961245    -0.06400
C1398       C  0.63991339  0.04642357  0.99636711     0.20600
C1399       C  0.62030790  0.08505820  0.98151498     0.18700
C1400       C  0.59850815  0.09837525  0.97496151    -0.17800
C1401       C  0.57490111  0.08688690  0.97612482    -0.20100
C1402       C  0.57248046  0.06189241  0.98415555     0.20200
C1403       C  0.54879579  0.05010946  0.98531172    -0.33100
C1404       C  0.54639627  0.02541205  0.99452148     0.00900
C1405       C  0.56819045  0.01258885  0.00221616    -0.24400
C1406       C  0.66363508  0.05809667  0.99515710    -0.29000
C1407       C  0.66603420  0.08333688  0.98749400     0.06600
C1408       C  0.64409699  0.09651473  0.98048838    -0.27700
H1409       H  0.65384201  0.01076618  0.00997230     0.11300
H1410       H  0.61249881  0.99117409  0.01333087     0.12400
H1411       H  0.59971138  0.11772812  0.96885621     0.11500
H1412       H  0.55848914  0.09763284  0.97085356     0.10700
H1413       H  0.53229884  0.06016205  0.97912534     0.16100
H1414       H  0.56652003  0.99377731  0.00977266     0.12000
H1415       H  0.68015478  0.04770261  0.00080324     0.14900
H1416       H  0.64541777  0.11598415  0.97476790     0.14700
C1417       C  0.53226624  0.09906643  0.09967710    -0.18200
C1418       C  0.53131495  0.07511505  0.08870506    -0.20400
C1419       C  0.52068903  0.07165341  0.06485322     0.20300
C1420       C  0.51139370  0.09279474  0.05177058    -0.03300
C1421       C  0.51249003  0.11706050  0.06281955    -0.06400
C1422       C  0.52265833  0.12014751  0.08704007     0.20600
C1423       C  0.50286605  0.13810012  0.04987280     0.18700
C1424       C  0.49281843  0.13476304  0.02574005    -0.17800
C1425       C  0.49161865  0.11080039  0.01488249    -0.20100
C1426       C  0.50055081  0.08965101  0.02785872     0.20200
C1427       C  0.49862420  0.06543249  0.01744243    -0.33100
C1428       C  0.50796718  0.04422953  0.03020029     0.00900
C1429       C  0.51901215  0.04749476  0.05395449    -0.24400
C1430       C  0.52235255  0.14405175  0.09850623    -0.29000
C1431       C  0.51185272  0.16507646  0.08620441     0.06600
C1432       C  0.50272979  0.16191570  0.06154687    -0.27700
H1433       H  0.54024033  0.10104207  0.11825962     0.11300
H1434       H  0.53864483  0.05921761  0.09904622     0.12400
H1435       H  0.48546467  0.15065542  0.01540415     0.11500
H1436       H  0.48344074  0.10877779  0.99639251     0.10700
H1437       H  0.48990626  0.06298077  0.99923699     0.16100
H1438       H  0.52612827  0.03125289  0.06391883     0.12000
H1439       H  0.52958439  0.14608893  0.11739463     0.14900
H1440       H  0.49470177  0.17781879  0.05172879     0.14700
C1441       C  0.72174929  0.09202324  0.85750261    -0.18200
C1442       C  0.71188782  0.08036211  0.83628288    -0.20400
C1443       C  0.70067669  0.05670154  0.83828749     0.20300
C1444       C  0.69986546  0.04433121  0.86174119    -0.03300
C1445       C  0.70989665  0.05603861  0.88311094    -0.06400
C1446       C  0.72054904  0.08012584  0.88093253     0.20600
C1447       C  0.70847280  0.04407669  0.90677125     0.18700
C1448       C  0.69724542  0.02038358  0.90869110    -0.17800
C1449       C  0.68703880  0.00884367  0.88747032    -0.20100
C1450       C  0.68807513  0.02077048  0.86401981     0.20200
C1451       C  0.67642301  0.01022863  0.84303547    -0.33100
C1452       C  0.67648441  0.02301690  0.82006307     0.00900
C1453       C  0.68912461  0.04577148  0.81751377    -0.24400
C1454       C  0.72909072  0.09228717  0.90237626    -0.29000
C1455       C  0.72728211  0.08072097  0.92591255     0.06600
C1456       C  0.71754417  0.05645375  0.92814060    -0.27700
H1457       H  0.72990977  0.11053935  0.85568170     0.11300
H1458       H  0.71251166  0.09007710  0.81842840     0.12400
H1459       H  0.69591286  0.01101602  0.92667977     0.11500
H1460       H  0.67794006  0.99079614  0.88947394     0.10700
H1461       H  0.66603266  0.99285075  0.84486158     0.16100
H1462       H  0.68880072  0.05555361  0.79975873     0.12000
H1463       H  0.73678762  0.11106779  0.90088511     0.14900
H1464       H  0.71600834  0.04782366  0.94649772     0.14700
C1465       C  0.67801156  0.97111597  0.58810103    -0.18200
C1466       C  0.66661295  0.98079835  0.60959082    -0.20400
C1467       C  0.67687322  0.97606807  0.63334883     0.20300
C1468       C  0.69935686  0.96238899  0.63561330    -0.03300
C1469       C  0.71080884  0.95253498  0.61392852    -0.06400
C1470       C  0.69977532  0.95653481  0.59011422     0.20600
C1471       C  0.73244790  0.93750412  0.61620367     0.18700
C1472       C  0.74310441  0.93347846  0.63995527    -0.17800
C1473       C  0.73181811  0.94343415  0.66149300    -0.20100
C1474       C  0.70965237  0.95747953  0.65960506     0.20200
C1475       C  0.69693588  0.96574846  0.68121502    -0.33100
C1476       C  0.67395684  0.97825377  0.67878029     0.00900
C1477       C  0.66437051  0.98380773  0.65493939    -0.24400
C1478       C  0.70981412  0.94463443  0.56895621    -0.29000
C1479       C  0.73035395  0.92855259  0.57150336     0.06600
C1480       C  0.74210181  0.92557357  0.59486658    -0.27700
H1481       H  0.66936511  0.97434823  0.56999157     0.11300
H1482       H  0.64937846  0.99140163  0.60769270     0.12400
H1483       H  0.75977705  0.92203268  0.64194287     0.11500
H1484       H  0.74001432  0.93953070  0.67967376     0.10700
H1485       H  0.70411222  0.96135956  0.69973214     0.16100
H1486       H  0.64660657  0.99352814  0.65325742     0.12000
H1487       H  0.70074249  0.94656992  0.55086680     0.14900
H1488       H  0.75785221  0.91280461  0.59661837     0.14700
C1489       C  0.73715898  0.86285726  0.75261386    -0.18200
C1490       C  0.72575521  0.88658129  0.75213574    -0.20400
C1491       C  0.70084527  0.88934904  0.74418461     0.20300
C1492       C  0.68748269  0.86791633  0.73621545    -0.03300
C1493       C  0.69900864  0.84387026  0.73675287    -0.06400
C1494       C  0.72390619  0.84136792  0.74516134     0.20600
C1495       C  0.68551047  0.82233059  0.72925675     0.18700
C1496       C  0.66072966  0.82516526  0.72092719    -0.17800
C1497       C  0.64934570  0.84893564  0.72037570    -0.20100
C1498       C  0.66247207  0.87042108  0.72816926     0.20200
C1499       C  0.65083707  0.89421562  0.72863048    -0.33100
C1500       C  0.66371868  0.91569386  0.73729654     0.00900
C1501       C  0.68893363  0.91303322  0.74464486    -0.24400
C1502       C  0.73500766  0.81742369  0.74632949    -0.29000
C1503       C  0.72164103  0.79577535  0.73931175     0.06600
C1504       C  0.69692197  0.79839886  0.73052623    -0.27700
H1505       H  0.75632168  0.86128883  0.75907090     0.11300
H1506       H  0.73637096  0.90276441  0.75826852     0.12400
H1507       H  0.65003615  0.80893833  0.71505276     0.11500
H1508       H  0.63011599  0.85046914  0.71411280     0.10700
H1509       H  0.63142779  0.89583402  0.72294343     0.16100
H1510       H  0.69913409  0.92928803  0.75130280     0.12000
H1511       H  0.75403884  0.81548701  0.75312883     0.14900
H1512       H  0.68660119  0.78186195  0.72485786     0.14700
C1513       C  0.58801621  0.97381899  0.92619487    -0.18200
C1514       C  0.59928017  0.97405268  0.90244568    -0.20400
C1515       C  0.58570582  0.98157705  0.88115059     0.20300
C1516       C  0.56061039  0.98931265  0.88389296    -0.03300
C1517       C  0.54925409  0.98925334  0.90798754    -0.06400
C1518       C  0.56297616  0.98125200  0.92920171     0.20600
C1519       C  0.52422309  0.99720718  0.91084159     0.18700
C1520       C  0.51076605  0.00506836  0.88957906    -0.17800
C1521       C  0.52196618  0.00502085  0.86573912    -0.20100
C1522       C  0.54691111  0.99719197  0.86261974     0.20200
C1523       C  0.55844414  0.99728404  0.83872313    -0.33100
C1524       C  0.58354080  0.98947959  0.83576572     0.00900
C1525       C  0.59689761  0.98162275  0.85724406    -0.24400
C1526       C  0.55152565  0.98099479  0.95303875    -0.29000
C1527       C  0.52679306  0.98953887  0.95619666     0.06600
C1528       C  0.51322623  0.99741046  0.93490400    -0.27700
H1529       H  0.59894543  0.96786795  0.94225652     0.11300
H1530       H  0.61865366  0.96825487  0.90072507     0.12400
H1531       H  0.49153136  0.01128392  0.89138244     0.11500
H1532       H  0.51109982  0.01118798  0.84971929     0.10700
H1533       H  0.54794972  0.00356146  0.82249038     0.16100
H1534       H  0.61628449  0.97585849  0.85546947     0.12000
H1535       H  0.56190984  0.97428069  0.96912295     0.14900
H1536       H  0.49415683  0.00401654  0.93720072     0.14700
C1537       C  0.56161560  0.63431822  0.25949153    -0.18200
C1538       C  0.55078085  0.65521684  0.27106328    -0.20400
C1539       C  0.53881580  0.65277066  0.29433770     0.20300
C1540       C  0.53680626  0.62882012  0.30560860    -0.03300
C1541       C  0.54749138  0.60771396  0.29381977    -0.06400
C1542       C  0.56048726  0.61065826  0.27096057     0.20600
C1543       C  0.54643115  0.58395989  0.30560018     0.18700
C1544       C  0.53372162  0.58132590  0.32847130    -0.17800
C1545       C  0.52326773  0.60231957  0.34026665    -0.20100
C1546       C  0.52528621  0.62617351  0.32926764     0.20200
C1547       C  0.51702625  0.64760206  0.34198168    -0.33100
C1548       C  0.51980731  0.67148048  0.33117328     0.00900
C1549       C  0.52988471  0.67398583  0.30708676    -0.24400
C1550       C  0.57338842  0.59021099  0.26076811    -0.29000
C1551       C  0.57351786  0.56706979  0.27321339     0.06600
C1552       C  0.55939135  0.56366108  0.29504281    -0.27700
H1553       H  0.57149217  0.63678929  0.24190872     0.11300
H1554       H  0.55243943  0.67342838  0.26218461     0.12400
H1555       H  0.53264435  0.56320946  0.33765560     0.11500
H1556       H  0.51424789  0.60002512  0.35833064     0.10700
H1557       H  0.50897133  0.64584374  0.36058946     0.16100
H1558       H  0.53206208  0.69251967  0.29897809     0.12000
H1559       H  0.58460238  0.59263506  0.24396972     0.14900
H1560       H  0.55964245  0.54569061  0.30446662     0.14700
C1561       C  0.66490082  0.78464979  0.42421300    -0.18200
C1562       C  0.64400976  0.77418963  0.41252298    -0.20400
C1563       C  0.62012297  0.77725707  0.42303588     0.20300
C1564       C  0.61720172  0.79012935  0.44598110    -0.03300
C1565       C  0.63820427  0.80089270  0.45761340    -0.06400
C1566       C  0.66209922  0.79844860  0.44644222     0.20600
C1567       C  0.63510906  0.81518030  0.47970749     0.18700
C1568       C  0.61133076  0.81751067  0.49064180    -0.17800
C1569       C  0.59049793  0.80653338  0.47924933    -0.20100
C1570       C  0.59315356  0.79323636  0.45668740     0.20200
C1571       C  0.57213477  0.78387345  0.44407961    -0.33100
C1572       C  0.57505443  0.77221912  0.42072238     0.00900
C1573       C  0.59897451  0.76853046  0.41050548    -0.24400
C1574       C  0.68248814  0.81102352  0.45694789    -0.29000
C1575       C  0.67898367  0.82649899  0.47783132     0.06600
C1576       C  0.65561506  0.82801860  0.48963875    -0.27700
H1577       H  0.68311070  0.78264050  0.41545926     0.11300
H1578       H  0.64644474  0.76420571  0.39496142     0.12400
H1579       H  0.60875248  0.82835759  0.50765900     0.11500
H1580       H  0.57221558  0.80905004  0.48769603     0.10700
H1581       H  0.55352641  0.78675733  0.45169745     0.16100
H1582       H  0.60101206  0.75926812  0.39247039     0.12000
H1583       H  0.70068742  0.80992923  0.44812080     0.14900
H1584       H  0.65320233  0.84019171  0.50579578     0.14700
C1585       C  0.45331769  0.58515283  0.43279213    -0.18200
C1586       C  0.45161158  0.60953332  0.42297975    -0.20400
C1587       C  0.46932200  0.62790609  0.42942693     0.20300
C1588       C  0.48869639  0.62172956  0.44630286    -0.03300
C1589       C  0.49060787  0.59699675  0.45597124    -0.06400
C1590       C  0.47287925  0.57855560  0.44911775     0.20600
C1591       C  0.51047608  0.59065825  0.47219947     0.18700
C1592       C  0.52793235  0.60911189  0.47900795    -0.17800
C1593       C  0.52594952  0.63357836  0.46957836    -0.20100
C1594       C  0.50654243  0.64007113  0.45303605     0.20200
C1595       C  0.50527772  0.66424564  0.44236279    -0.33100
C1596       C  0.48681068  0.67018095  0.42445567     0.00900
C1597       C  0.46854424  0.65201278  0.41859045    -0.24400
C1598       C  0.47512833  0.55390348  0.45860965    -0.29000
C1599       C  0.49502502  0.54749872  0.47469696     0.06600
C1600       C  0.51259536  0.56599574  0.48130318    -0.27700
H1601       H  0.43947396  0.57135530  0.42735934     0.11300
H1602       H  0.43655688  0.61394328  0.41009223     0.12400
H1603       H  0.54325940  0.60457313  0.49152659     0.11500
H1604       H  0.53985380  0.64734516  0.47494109     0.10700
H1605       H  0.51961225  0.67790744  0.44681523     0.16100
H1606       H  0.45423740  0.65634734  0.40483003     0.12000
H1607       H  0.46154435  0.53972267  0.45349344     0.14900
H1608       H  0.52783507  0.56113802  0.49384268     0.14700
C1609       C  0.61055051  0.76109205  0.27402710    -0.18200
C1610       C  0.63451081  0.76367283  0.26362857    -0.20400
C1611       C  0.65528853  0.75194093  0.27477141     0.20300
C1612       C  0.65175399  0.73686460  0.29622320    -0.03300
C1613       C  0.62749723  0.73426958  0.30675156    -0.06400
C1614       C  0.60685387  0.74673535  0.29580631     0.20600
C1615       C  0.62405985  0.71981790  0.32863389     0.18700
C1616       C  0.64471023  0.70737699  0.33926305    -0.17800
C1617       C  0.66865649  0.70978610  0.32875086    -0.20100
C1618       C  0.67250870  0.72478353  0.30744488     0.20200
C1619       C  0.69669777  0.72811540  0.29731238    -0.33100
C1620       C  0.70036813  0.74357409  0.27624288     0.00900
C1621       C  0.67953159  0.75521138  0.26499031    -0.24400
C1622       C  0.58313302  0.74547202  0.30736141    -0.29000
C1623       C  0.57978612  0.73224440  0.33002872     0.06600
C1624       C  0.60029661  0.71884909  0.34005799    -0.27700
H1625       H  0.59496139  0.77073229  0.26527394     0.11300
H1626       H  0.63684274  0.77516444  0.24703039     0.12400
H1627       H  0.64242201  0.69608640  0.35600307     0.11500
H1628       H  0.68426008  0.70021806  0.33755259     0.10700
H1629       H  0.71264805  0.71878551  0.30575599     0.16100
H1630       H  0.68228676  0.76678619  0.24849625     0.12000
H1631       H  0.56761730  0.75591208  0.29940819     0.14900
H1632       H  0.59805174  0.70850405  0.35741554     0.14700
C1633       C  0.60297612  0.91080442  0.54240177    -0.18200
C1634       C  0.57890694  0.92140117  0.54137009    -0.20400
C1635       C  0.57406249  0.94248295  0.52630149     0.20300
C1636       C  0.59393767  0.95318329  0.51246839    -0.03300
C1637       C  0.61837284  0.94265903  0.51378277    -0.06400
C1638       C  0.62283686  0.92116997  0.52856789     0.20600
C1639       C  0.63819441  0.95336183  0.49992182     0.18700
C1640       C  0.63343576  0.97465176  0.48510851    -0.17800
C1641       C  0.60928608  0.98491635  0.48364381    -0.20100
C1642       C  0.58936643  0.97421889  0.49706928     0.20200
C1643       C  0.56497367  0.98408889  0.49521930    -0.33100
C1644       C  0.54501891  0.97358089  0.50886179     0.00900
C1645       C  0.54975988  0.95293431  0.52466009    -0.24400
C1646       C  0.64686411  0.91006288  0.52877421    -0.29000
C1647       C  0.66672667  0.92016177  0.51448874     0.06600
C1648       C  0.66221572  0.94223009  0.50054424    -0.27700
H1649       H  0.60601231  0.89432599  0.55391643     0.11300
H1650       H  0.56398653  0.91289266  0.55215768     0.12400
H1651       H  0.64835578  0.98319283  0.47434545     0.11500
H1652       H  0.60615615  0.00116900  0.47183319     0.10700
H1653       H  0.56143545  0.00016490  0.48325325     0.16100
H1654       H  0.53456208  0.94498675  0.53548829     0.12000
H1655       H  0.64992716  0.89312549  0.53961208     0.14900
H1656       H  0.67713943  0.95019425  0.48933688     0.14700
C1657       C  0.38477032  0.01100688  0.49709589    -0.18200
C1658       C  0.36109923  0.02232982  0.49610957    -0.20400
C1659       C  0.35867230  0.04808173  0.49108028     0.20300
C1660       C  0.38043777  0.06247574  0.48673233    -0.03300
C1661       C  0.40441309  0.05103195  0.48781553    -0.06400
C1662       C  0.40652733  0.02519809  0.49313247     0.20600
C1663       C  0.42622711  0.06546291  0.48385179     0.18700
C1664       C  0.42378814  0.09122843  0.47877724    -0.17800
C1665       C  0.40007465  0.10254760  0.47768452    -0.20100
C1666       C  0.37828479  0.08834401  0.48163924     0.20200
C1667       C  0.35445023  0.09964444  0.48104089    -0.33100
C1668       C  0.33258395  0.08561402  0.48595707     0.00900
C1669       C  0.33493798  0.05972907  0.49077315    -0.24400
C1670       C  0.43032697  0.01403866  0.49477769    -0.29000
C1671       C  0.45225201  0.02819693  0.49116024     0.06600
C1672       C  0.45001180  0.05392203  0.48531606    -0.27700
H1673       H  0.38606664  0.99112342  0.50116795     0.11300
H1674       H  0.34466626  0.01094109  0.49946044     0.12400
H1675       H  0.44024845  0.10268059  0.47579151     0.11500
H1676       H  0.39878935  0.12248992  0.47389102     0.10700
H1677       H  0.35303650  0.11961705  0.47749217     0.16100
H1678       H  0.31834532  0.04872219  0.49463515     0.12000
H1679       H  0.43189194  0.99426573  0.49934431     0.14900
H1680       H  0.46672796  0.06493417  0.48213915     0.14700
C1681       C  0.52150661  0.99792769  0.63750641    -0.18200
C1682       C  0.51011841  0.99742505  0.61380508    -0.20400
C1683       C  0.52342709  0.00465353  0.59226579     0.20300
C1684       C  0.54838675  0.01283384  0.59470102    -0.03300
C1685       C  0.55986242  0.01349804  0.61874297    -0.06400
C1686       C  0.54643126  0.00578170  0.64023180     0.20600
C1687       C  0.58486079  0.02150769  0.62120282     0.18700
C1688       C  0.59812002  0.02889360  0.59964867    -0.17800
C1689       C  0.58682460  0.02811765  0.57587655    -0.20100
C1690       C  0.56198265  0.02000685  0.57310670     0.20200
C1691       C  0.55061820  0.01858935  0.54918758    -0.33100
C1692       C  0.52583071  0.01001027  0.54662859     0.00900
C1693       C  0.51233707  0.00342633  0.56833862    -0.24400
C1694       C  0.55824847  0.00559467  0.66394782    -0.29000
C1695       C  0.58336215  0.01322790  0.66663107     0.06600
C1696       C  0.59631093  0.02156135  0.64505071    -0.27700
H1697       H  0.51083398  0.99197444  0.65372101     0.11300
H1698       H  0.49092074  0.99110944  0.61229442     0.12400
H1699       H  0.61737251  0.03504928  0.60113827     0.11500
H1700       H  0.59761478  0.03370061  0.55960639     0.10700
H1701       H  0.56105179  0.02390397  0.53259647     0.16100
H1702       H  0.49325304  0.99681493  0.56645968     0.12000
H1703       H  0.54799791  0.99913287  0.68024938     0.14900
H1704       H  0.61560459  0.02755253  0.64665683     0.14700
C1705       C  0.52100291  0.90082038  0.39928736    -0.18200
C1706       C  0.51924367  0.92451610  0.41069002    -0.20400
C1707       C  0.51428238  0.92674697  0.43647709     0.20300
C1708       C  0.51097492  0.90471004  0.45084198    -0.03300
C1709       C  0.51262622  0.88068192  0.43925095    -0.06400
C1710       C  0.51770998  0.87876206  0.41335979     0.20600
C1711       C  0.50889698  0.85864196  0.45349126     0.18700
C1712       C  0.50400554  0.86088536  0.47931821    -0.17800
C1713       C  0.50249121  0.88459984  0.49078987    -0.20100
C1714       C  0.50577922  0.90666662  0.47671321     0.20200
C1715       C  0.50369450  0.93059741  0.48796821    -0.33100
C1716       C  0.50695384  0.95278108  0.47385410     0.00900
C1717       C  0.51244186  0.95056829  0.44806432    -0.24400
C1718       C  0.51891647  0.85491481  0.40185466    -0.29000
C1719       C  0.51434706  0.83270989  0.41558236     0.06600
C1720       C  0.50960607  0.83486553  0.44158686    -0.27700
H1721       H  0.52480380  0.89976414  0.37935119     0.11300
H1722       H  0.52172781  0.94114656  0.39927625     0.12400
H1723       H  0.50115805  0.84426571  0.49065970     0.11500
H1724       H  0.49856050  0.88567687  0.51070456     0.10700
H1725       H  0.49912211  0.93203193  0.50772784     0.16100
H1726       H  0.51510906  0.96740575  0.43699928     0.12000
H1727       H  0.52260804  0.85375720  0.38192359     0.14900
H1728       H  0.50606514  0.81807889  0.45248945     0.14700
C1729       C  0.43117773  0.83616890  0.27619741    -0.18200
C1730       C  0.42006262  0.85771473  0.26629840    -0.20400
C1731       C  0.42881770  0.88155088  0.27318884     0.20300
C1732       C  0.44963784  0.88390350  0.28923142    -0.03300
C1733       C  0.46075479  0.86222173  0.29926961    -0.06400
C1734       C  0.45111523  0.83824647  0.29313011     0.20600
C1735       C  0.48050186  0.86459796  0.31663028     0.18700
C1736       C  0.48976599  0.88841378  0.32288137    -0.17800
C1737       C  0.47879785  0.90996772  0.31279107    -0.20100
C1738       C  0.45840148  0.90793913  0.29639328     0.20200
C1739       C  0.44572879  0.92942770  0.28809372    -0.33100
C1740       C  0.42424772  0.92683067  0.27338252     0.00900
C1741       C  0.41626295  0.90309208  0.26542214    -0.24400
C1742       C  0.46054056  0.81696639  0.30526837    -0.29000
C1743       C  0.47901645  0.81970345  0.32357613     0.06600
C1744       C  0.48956961  0.84320004  0.32859184    -0.27700
H1745       H  0.42363551  0.81794474  0.27129894     0.11300
H1746       H  0.40412149  0.85576922  0.25388168     0.12400
H1747       H  0.50498705  0.89038751  0.33615889     0.11500
H1748       H  0.48573725  0.92821624  0.31842826     0.10700
H1749       H  0.45154681  0.94791772  0.29427035     0.16100
H1750       H  0.39958721  0.90140947  0.25397380     0.12000
H1751       H  0.45240441  0.79865441  0.30180647     0.14900
H1752       H  0.50391780  0.84490679  0.34283785     0.14700
C1753       C  0.41605045  0.16539474  0.21454925    -0.18200
C1754       C  0.40486630  0.14411996  0.22485351    -0.20400
C1755       C  0.41753047  0.12102070  0.22472820     0.20300
C1756       C  0.44203762  0.11937524  0.21506896    -0.03300
C1757       C  0.45328884  0.14081687  0.20461322    -0.06400
C1758       C  0.44000995  0.16380353  0.20395800     0.20600
C1759       C  0.47726072  0.13895695  0.19365700     0.18700
C1760       C  0.49013377  0.11595932  0.19413362    -0.17800
C1761       C  0.47901489  0.09468694  0.20467749    -0.20100
C1762       C  0.45482246  0.09607628  0.21480161     0.20200
C1763       C  0.44272305  0.07444511  0.22363633    -0.33100
C1764       C  0.41793182  0.07600117  0.23201551     0.00900
C1765       C  0.40567864  0.09931295  0.23309567    -0.24400
C1766       C  0.45034274  0.18440142  0.19148951    -0.29000
C1767       C  0.47353500  0.18218342  0.17957552     0.06600
C1768       C  0.48728458  0.15978336  0.18122652    -0.27700
H1769       H  0.40568754  0.18291160  0.21420768     0.11300
H1770       H  0.38605857  0.14557964  0.23233868     0.12400
H1771       H  0.50855693  0.11428147  0.18579472     0.11500
H1772       H  0.48907420  0.07700715  0.20432071     0.10700
H1773       H  0.45196852  0.05632819  0.22270345     0.16100
H1774       H  0.38652642  0.10037586  0.23981343     0.12000
H1775       H  0.43980434  0.20167550  0.18988304     0.14900
H1776       H  0.50508136  0.15817610  0.17155073     0.14700
C1777       C  0.30485940  0.01924289  0.41081045    -0.18200
C1778       C  0.31479661  0.00738504  0.38963491    -0.20400
C1779       C  0.31067638  0.01741858  0.36564662     0.20300
C1780       C  0.29563757  0.03902200  0.36273822    -0.03300
C1781       C  0.28590488  0.05111080  0.38404706    -0.06400
C1782       C  0.29084685  0.04137558  0.40825737     0.20600
C1783       C  0.27234971  0.07367183  0.38119223     0.18700
C1784       C  0.26758854  0.08331865  0.35718265    -0.17800
C1785       C  0.27713622  0.07123613  0.33601496    -0.20100
C1786       C  0.29159325  0.04942440  0.33865115     0.20200
C1787       C  0.30345403  0.03878776  0.31784480    -0.33100
C1788       C  0.31966183  0.01846410  0.32109047     0.00900
C1789       C  0.32264867  0.00726417  0.34467570    -0.24400
C1790       C  0.28266853  0.05462114  0.42945056    -0.29000
C1791       C  0.27040720  0.07764141  0.42643311     0.06600
C1792       C  0.26478357  0.08681764  0.40246251    -0.27700
H1793       H  0.30878872  0.01155681  0.42921699     0.11300
H1794       H  0.32628986  0.99077857  0.39206899     0.12400
H1795       H  0.25708848  0.10059094  0.35483385     0.11500
H1796       H  0.27394362  0.07941120  0.31767058     0.10700
H1797       H  0.30154730  0.04737125  0.29952010     0.16100
H1798       H  0.33558728  0.99169227  0.34688898     0.12000
H1799       H  0.28695661  0.04782065  0.44814265     0.14900
H1800       H  0.25503978  0.10460309  0.40044536     0.14700
C1801       C  0.41790141  0.04563430  0.11011598    -0.18200
C1802       C  0.42853078  0.04408494  0.08611128    -0.20400
C1803       C  0.44626834  0.02545299  0.08044776     0.20300
C1804       C  0.45356571  0.00836914  0.09939083    -0.03300
C1805       C  0.44303584  0.01014198  0.12379199    -0.06400
C1806       C  0.42491911  0.02871335  0.12906721     0.20600
C1807       C  0.45030030  0.99308858  0.14274028     0.18700
C1808       C  0.46807550  0.97443503  0.13707961    -0.17800
C1809       C  0.47835780  0.97256700  0.11291258    -0.20100
C1810       C  0.47118163  0.98938333  0.09390191     0.20200
C1811       C  0.48124349  0.98754785  0.06952612    -0.33100
C1812       C  0.47419948  0.00460526  0.05057685     0.00900
C1813       C  0.45672778  0.02355706  0.05620563    -0.24400
C1814       C  0.41364215  0.02966661  0.15294695    -0.29000
C1815       C  0.42034612  0.01248382  0.17189681     0.06600
C1816       C  0.43915234  0.99455463  0.16673448    -0.27700
H1817       H  0.40403478  0.06003313  0.11381864     0.11300
H1818       H  0.42269269  0.05737468  0.07187942     0.12400
H1819       H  0.47386106  0.96110229  0.15129698     0.11500
H1820       H  0.49189283  0.95788606  0.10906845     0.10700
H1821       H  0.49478069  0.97296495  0.06525481     0.16100
H1822       H  0.45124885  0.03668999  0.04167631     0.12000
H1823       H  0.39913853  0.04344866  0.15661860     0.14900
H1824       H  0.44420361  0.98092961  0.18096909     0.14700
C1825       C  0.42514123  0.95204854  0.41848268    -0.18200
C1826       C  0.41410838  0.95113623  0.39454401    -0.20400
C1827       C  0.42043807  0.96883472  0.37602945     0.20300
C1828       C  0.43823252  0.98750271  0.38176493    -0.03300
C1829       C  0.44905277  0.98867981  0.40605390    -0.06400
C1830       C  0.44257447  0.97082783  0.42455049     0.20600
C1831       C  0.46621384  0.00790512  0.41184490     0.18700
C1832       C  0.47266169  0.02552173  0.39340004    -0.17800
C1833       C  0.46225655  0.02415150  0.36936438    -0.20100
C1834       C  0.44497324  0.00530323  0.36335760     0.20200
C1835       C  0.43385340  0.00447608  0.33947544    -0.33100
C1836       C  0.41533011  0.98664370  0.33377161     0.00900
C1837       C  0.40892227  0.96864047  0.35214270    -0.24400
C1838       C  0.45359725  0.97220897  0.44867728    -0.29000
C1839       C  0.47072320  0.99147563  0.45446540     0.06600
C1840       C  0.47669303  0.00925686  0.43594326    -0.27700
H1841       H  0.41986520  0.93815921  0.43233430     0.11300
H1842       H  0.40051752  0.93661568  0.39054761     0.12400
H1843       H  0.48580945  0.04040314  0.39756499     0.11500
H1844       H  0.46754397  0.03804921  0.35552045     0.10700
H1845       H  0.43876835  0.01858800  0.32569344     0.16100
H1846       H  0.39466267  0.95480524  0.34800995     0.12000
H1847       H  0.44883389  0.95852272  0.46292102     0.14900
H1848       H  0.48984131  0.02409975  0.44034353     0.14700
C1849       C  0.60727330  0.33852498  0.52171862    -0.18200
C1850       C  0.58614187  0.32692942  0.53183969    -0.20400
C1851       C  0.58865554  0.30501494  0.54618935     0.20300
C1852       C  0.61256940  0.29408156  0.54955312    -0.03300
C1853       C  0.63381883  0.30560072  0.53911899    -0.06400
C1854       C  0.63114888  0.32823787  0.52566795     0.20600
C1855       C  0.65783582  0.29509107  0.54311674     0.18700
C1856       C  0.66026734  0.27290487  0.55703487    -0.17800
C1857       C  0.63920635  0.26166555  0.56770278    -0.20100
C1858       C  0.61540531  0.27234241  0.56440031     0.20200
C1859       C  0.59457083  0.26246637  0.57675683    -0.33100
C1860       C  0.57108009  0.27393332  0.57424329     0.00900
C1861       C  0.56792339  0.29459154  0.55836381    -0.24400
C1862       C  0.65250837  0.34068895  0.51727076    -0.29000
C1863       C  0.67636104  0.33060706  0.52181287     0.06600
C1864       C  0.67903848  0.30753714  0.53402575    -0.27700
H1865       H  0.60501102  0.35584008  0.51128794     0.11300
H1866       H  0.56793488  0.33551473  0.52910534     0.12400
H1867       H  0.67853381  0.26463750  0.56026136     0.11500
H1868       H  0.64159733  0.24494169  0.57902056     0.10700
H1869       H  0.59677537  0.24658963  0.58931341     0.16100
H1870       H  0.54969688  0.30334186  0.55665596     0.12000
H1871       H  0.65068426  0.35853793  0.50762652     0.14900
H1872       H  0.69759708  0.30005718  0.53758893     0.14700
C1873       C  0.56686153  0.13835570  0.74198817    -0.18200
C1874       C  0.55648229  0.15977563  0.73098458    -0.20400
C1875       C  0.54243903  0.15778701  0.70885371     0.20300
C1876       C  0.53793926  0.13383640  0.69825785    -0.03300
C1877       C  0.54821802  0.11227303  0.70942282    -0.06400
C1878       C  0.56321550  0.11467791  0.73106302     0.20600
C1879       C  0.54467393  0.08848811  0.69812559     0.18700
C1880       C  0.53009456  0.08637267  0.67638378    -0.17800
C1881       C  0.51997228  0.10779664  0.66524078    -0.20100
C1882       C  0.52428369  0.13154579  0.67575118     0.20200
C1883       C  0.51624224  0.15315223  0.66346308    -0.33100
C1884       C  0.52157900  0.17692787  0.67335903     0.00900
C1885       C  0.53387458  0.17933226  0.69640456    -0.24400
C1886       C  0.57545292  0.09355112  0.74051496    -0.29000
C1887       C  0.57287688  0.07030168  0.72854336     0.06600
C1888       C  0.55696571  0.06750735  0.70795951    -0.27700
H1889       H  0.57832219  0.14038501  0.75864063     0.11300
H1890       H  0.56007170  0.17795943  0.73934451     0.12400
H1891       H  0.52720227  0.06826758  0.66756566     0.11500
H1892       H  0.50938679  0.10587761  0.64800291     0.10700
H1893       H  0.50652250  0.15157005  0.64565143     0.16100
H1894       H  0.53800351  0.19784827  0.70376756     0.12000
H1895       H  0.58808643  0.09538407  0.75634834     0.14900
H1896       H  0.55532889  0.04940733  0.69883262     0.14700
C1897       C  0.38735582  0.18325692  0.50949872    -0.18200
C1898       C  0.40868505  0.19353636  0.52066941    -0.20400
C1899       C  0.40668232  0.20725324  0.54306100     0.20300
C1900       C  0.38281596  0.21123412  0.55392581    -0.03300
C1901       C  0.36134418  0.20103818  0.54260859    -0.06400
C1902       C  0.36372357  0.18663080  0.52052350     0.20600
C1903       C  0.33764525  0.20427186  0.55404562     0.18700
C1904       C  0.33554797  0.21820478  0.57625471    -0.17800
C1905       C  0.35685010  0.22825927  0.58751880    -0.20100
C1906       C  0.38049260  0.22452290  0.57668804     0.20200
C1907       C  0.40195727  0.23302885  0.58876898    -0.33100
C1908       C  0.42568223  0.22857679  0.57843703     0.00900
C1909       C  0.42811237  0.21624399  0.55534770    -0.24400
C1910       C  0.34259317  0.17479789  0.51063680    -0.29000
C1911       C  0.31934322  0.17719674  0.52260227     0.06600
C1912       C  0.31668718  0.19242033  0.54378525    -0.27700
H1913       H  0.38940554  0.17219750  0.49254470     0.11300
H1914       H  0.42680021  0.19027836  0.51211236     0.12400
H1915       H  0.31752437  0.22077735  0.58524327     0.11500
H1916       H  0.35490910  0.23849580  0.60499767     0.10700
H1917       H  0.40031640  0.24260983  0.60667899     0.16100
H1918       H  0.44658011  0.21261003  0.54770712     0.12000
H1919       H  0.34439855  0.16266580  0.49438941     0.14900
H1920       H  0.29867333  0.19386136  0.55301754     0.14700
C1921       C  0.44336338  0.36439358  0.74601791    -0.18200
C1922       C  0.45335227  0.34297682  0.73462688    -0.20400
C1923       C  0.46506277  0.34472775  0.71115857     0.20300
C1924       C  0.46825638  0.36852723  0.69981671    -0.03300
C1925       C  0.45849850  0.39011079  0.71142393    -0.06400
C1926       C  0.44517108  0.38782682  0.73416028     0.20600
C1927       C  0.46032629  0.41364694  0.69927849     0.18700
C1928       C  0.47326206  0.41564176  0.67649369    -0.17800
C1929       C  0.48279670  0.39417857  0.66487878    -0.20100
C1930       C  0.47958341  0.37055192  0.67601212     0.20200
C1931       C  0.48607627  0.34877960  0.66307914    -0.33100
C1932       C  0.48157683  0.32514035  0.67368808     0.00900
C1933       C  0.47220343  0.32304648  0.69808727    -0.24400
C1934       C  0.43222439  0.40860928  0.74352374    -0.29000
C1935       C  0.43248129  0.43134748  0.73035257     0.06600
C1936       C  0.44745574  0.43429565  0.70908573    -0.27700
H1937       H  0.43332942  0.36246987  0.76357956     0.11300
H1938       H  0.45092728  0.32491234  0.74362755     0.12400
H1939       H  0.47494147  0.43359440  0.66708539     0.11500
H1940       H  0.49176008  0.39591991  0.64671659     0.10700
H1941       H  0.49381343  0.35013492  0.64430384     0.16100
H1942       H  0.46896670  0.30463063  0.70610263     0.12000
H1943       H  0.42044479  0.40666141  0.75998863     0.14900
H1944       H  0.44749390  0.45203378  0.69916285     0.14700
C1945       C  0.53783721  0.39761178  0.59476164    -0.18200
C1946       C  0.53773290  0.42162001  0.58398344    -0.20400
C1947       C  0.52621897  0.42582000  0.56068436     0.20300
C1948       C  0.51499801  0.40538946  0.54801088    -0.03300
C1949       C  0.51506725  0.38110134  0.55894505    -0.06400
C1950       C  0.52641722  0.37727527  0.58248578     0.20600
C1951       C  0.50335531  0.36079847  0.54655717     0.18700
C1952       C  0.49208637  0.36494801  0.52311263    -0.17800
C1953       C  0.49209307  0.38892162  0.51225234    -0.20100
C1954       C  0.50331186  0.40929266  0.52462168     0.20200
C1955       C  0.50265817  0.43354587  0.51422525    -0.33100
C1956       C  0.51335447  0.45407834  0.52689815     0.00900
C1957       C  0.52534387  0.45007851  0.55003794    -0.24400
C1958       C  0.52565833  0.35336454  0.59365125    -0.29000
C1959       C  0.51338645  0.33302774  0.58189372     0.06600
C1960       C  0.50258944  0.33691667  0.55807182    -0.27700
H1961       H  0.54662714  0.39501083  0.61289556     0.11300
H1962       H  0.54646259  0.43697376  0.59401422     0.12400
H1963       H  0.48302053  0.34967784  0.51325717     0.11500
H1964       H  0.48305285  0.39158604  0.49425180     0.10700
H1965       H  0.49338787  0.43664242  0.49639100     0.16100
H1966       H  0.53362655  0.46585155  0.55981195     0.12000
H1967       H  0.53407753  0.35082453  0.61197651     0.14900
H1968       H  0.49304123  0.32157426  0.54879293     0.14700
C1969       C  0.52071954  0.13475512  0.53087851    -0.18200
C1970       C  0.52206035  0.11061982  0.52046213    -0.20400
C1971       C  0.50578366  0.09159057  0.52852057     0.20300
C1972       C  0.48764202  0.09710608  0.54696628    -0.03300
C1973       C  0.48647176  0.12149775  0.55772143    -0.06400
C1974       C  0.50319933  0.14035251  0.54972403     0.20600
C1975       C  0.46900261  0.12681810  0.57686671     0.18700
C1976       C  0.45224289  0.10795685  0.58438838    -0.17800
C1977       C  0.45313177  0.08395854  0.57347275    -0.20100
C1978       C  0.47097655  0.07816155  0.55497213     0.20200
C1979       C  0.47264357  0.05378611  0.54453196    -0.33100
C1980       C  0.49102900  0.04807102  0.52644144     0.00900
C1981       C  0.50747572  0.06713908  0.51858762    -0.24400
C1982       C  0.50270857  0.16419090  0.56122894    -0.29000
C1983       C  0.48620283  0.16937646  0.58121728     0.06600
C1984       C  0.46910410  0.15060407  0.58861537    -0.27700
H1985       H  0.53371144  0.14895772  0.52446538     0.11300
H1986       H  0.53600994  0.10677800  0.50620583     0.12400
H1987       H  0.43857563  0.11168220  0.59894482     0.11500
H1988       H  0.44007587  0.06978635  0.57981061     0.10700
H1989       H  0.45983777  0.03923305  0.55053189     0.16100
H1990       H  0.52149951  0.06288367  0.50449699     0.12000
H1991       H  0.51610477  0.17830164  0.55545310     0.14900
H1992       H  0.45626199  0.15431204  0.60392719     0.14700
C1993       C  0.29342512  0.16050307  0.64583484    -0.18200
C1994       C  0.29297998  0.17166814  0.66970547    -0.20400
C1995       C  0.27730285  0.19228813  0.67466724     0.20300
C1996       C  0.26221770  0.20193912  0.65510984    -0.03300
C1997       C  0.26283646  0.19078584  0.63091820    -0.06400
C1998       C  0.27831602  0.16979805  0.62633157     0.20600
C1999       C  0.24759694  0.20035945  0.61148441     0.18700
C2000       C  0.23201276  0.22105077  0.61635895    -0.17800
C2001       C  0.23126973  0.23195761  0.64027654    -0.20100
C2002       C  0.24617998  0.22248007  0.65980564     0.20200
C2003       C  0.24503175  0.23295457  0.68400741    -0.33100
C2004       C  0.25976504  0.22336173  0.70368239     0.00900
C2005       C  0.27610407  0.20316461  0.69884631    -0.24400
C2006       C  0.27799125  0.15816221  0.60254234    -0.29000
C2007       C  0.26250285  0.16730807  0.58310105     0.06600
C2008       C  0.24771325  0.18875169  0.58771835    -0.27700
H2009       H  0.30547402  0.14442261  0.64268745     0.11300
H2010       H  0.30471410  0.16396629  0.68439150     0.12400
H2011       H  0.22014604  0.22864729  0.60171936     0.11500
H2012       H  0.21886451  0.24773832  0.64354926     0.10700
H2013       H  0.23241581  0.24849193  0.68772244     0.16100
H2014       H  0.28742425  0.19568667  0.71397684     0.12000
H2015       H  0.28945845  0.14166344  0.59931873     0.14900
H2016       H  0.23555832  0.19589811  0.57307975     0.14700
C2017       C  0.24043258  0.13510869  0.75198251    -0.18200
C2018       C  0.22933703  0.11127936  0.75111157    -0.20400
C2019       C  0.20459953  0.10837908  0.74270376     0.20300
C2020       C  0.19122480  0.12975270  0.73443454    -0.03300
C2021       C  0.20240756  0.15386420  0.73539313    -0.06400
C2022       C  0.22700945  0.15656181  0.74452821     0.20600
C2023       C  0.18877687  0.17530580  0.72771001     0.18700
C2024       C  0.16428393  0.17233707  0.71868985    -0.17800
C2025       C  0.15322815  0.14852371  0.71776769    -0.20100
C2026       C  0.16645049  0.12715992  0.72579280     0.20200
C2027       C  0.15504332  0.10340931  0.72595654    -0.33100
C2028       C  0.16776563  0.08203739  0.73512360     0.00900
C2029       C  0.19278629  0.08468178  0.74307976    -0.24400
C2030       C  0.23751481  0.18068600  0.74660785    -0.29000
C2031       C  0.22382260  0.20225146  0.73970841     0.06600
C2032       C  0.19966572  0.19932997  0.72965857    -0.27700
H2033       H  0.25941712  0.13680602  0.75889761     0.11300
H2034       H  0.24000403  0.09514727  0.75739314     0.12400
H2035       H  0.15351129  0.18850827  0.71269095     0.11500
H2036       H  0.13415164  0.14686767  0.71109471     0.10700
H2037       H  0.13580485  0.10179847  0.71973940     0.16100
H2038       H  0.20284859  0.06846484  0.75011751     0.12000
H2039       H  0.25624585  0.18282483  0.75411613     0.14900
H2040       H  0.18928949  0.21572514  0.72362277     0.14700
C2041       C  0.35283922  0.34547893  0.77588894    -0.18200
C2042       C  0.34092458  0.32198878  0.77562472    -0.20400
C2043       C  0.31521220  0.32006569  0.77043928     0.20300
C2044       C  0.30138929  0.34220899  0.76578241    -0.03300
C2045       C  0.31340749  0.36601515  0.76625232    -0.06400
C2046       C  0.33930384  0.36765485  0.77114091     0.20600
C2047       C  0.29958748  0.38809683  0.76132379     0.18700
C2048       C  0.27381426  0.38620024  0.75647083    -0.17800
C2049       C  0.26200074  0.36271155  0.75584112    -0.20100
C2050       C  0.27564826  0.34056366  0.76018490     0.20200
C2051       C  0.26413221  0.31683456  0.75840865    -0.33100
C2052       C  0.27773170  0.29451570  0.76267173     0.00900
C2053       C  0.30321668  0.29643982  0.76934237    -0.24400
C2054       C  0.35128096  0.39131333  0.77065464    -0.29000
C2055       C  0.33780867  0.41350413  0.76505652     0.06600
C2056       C  0.31181622  0.41158657  0.76074809    -0.27700
H2057       H  0.37275109  0.34627248  0.77962111     0.11300
H2058       H  0.35193587  0.30525601  0.77915009     0.12400
H2059       H  0.26281667  0.40290181  0.75277064     0.11500
H2060       H  0.24217874  0.36185914  0.75167095     0.10700
H2061       H  0.24461835  0.31565060  0.75301803     0.16100
H2062       H  0.31380683  0.27957434  0.77330859     0.12000
H2063       H  0.37128556  0.39232388  0.77383903     0.14900
H2064       H  0.30113730  0.42836924  0.75647559     0.14700
C2065       C  0.38722613  0.23697553  0.72708780    -0.18200
C2066       C  0.36327135  0.23522850  0.73774097    -0.20400
C2067       C  0.34264459  0.24711349  0.72645992     0.20300
C2068       C  0.34630989  0.26128601  0.70443487    -0.03300
C2069       C  0.37054902  0.26289988  0.69354953    -0.06400
C2070       C  0.39109617  0.25053360  0.70481909     0.20600
C2071       C  0.37408472  0.27642585  0.67111414     0.18700
C2072       C  0.35351245  0.28865493  0.66006429    -0.17800
C2073       C  0.32962717  0.28726224  0.67093671    -0.20100
C2074       C  0.32570517  0.27348576  0.69304202     0.20200
C2075       C  0.30159559  0.27150553  0.70381397    -0.33100
C2076       C  0.29781386  0.25723450  0.72569855     0.00900
C2077       C  0.31843483  0.24491521  0.73670053    -0.24400
C2078       C  0.41492146  0.25129165  0.69325926    -0.29000
C2079       C  0.41850614  0.26400141  0.67030521     0.06600
C2080       C  0.39791297  0.27692212  0.65972511    -0.27700
H2081       H  0.40269269  0.22738159  0.73610201     0.11300
H2082       H  0.36084881  0.22438664  0.75475745     0.12400
H2083       H  0.35584464  0.29914742  0.64281880     0.11500
H2084       H  0.31413948  0.29677375  0.66187402     0.10700
H2085       H  0.28576843  0.28083549  0.69514267     0.16100
H2086       H  0.31556179  0.23376979  0.75346687     0.12000
H2087       H  0.43040690  0.24114164  0.70162718     0.14900
H2088       H  0.40020310  0.28678124  0.64209484     0.14700
C2089       C  0.26815241  0.44366094  0.83922919    -0.18200
C2090       C  0.25663077  0.43377626  0.86058211    -0.20400
C2091       C  0.26733603  0.43730964  0.88436531     0.20300
C2092       C  0.28928621  0.45174889  0.88690678    -0.03300
C2093       C  0.30103359  0.46139763  0.86541729    -0.06400
C2094       C  0.29062350  0.45702323  0.84138110     0.20600
C2095       C  0.32391303  0.47425958  0.86789003     0.18700
C2096       C  0.33423942  0.47851611  0.89170353    -0.17800
C2097       C  0.32246931  0.46911998  0.91305370    -0.20100
C2098       C  0.30033968  0.45526149  0.91077701     0.20200
C2099       C  0.28997067  0.44347113  0.93170120    -0.33100
C2100       C  0.26926513  0.42782266  0.92879363     0.00900
C2101       C  0.25745578  0.42535610  0.90545907    -0.24400
C2102       C  0.30351754  0.46508700  0.81994386    -0.29000
C2103       C  0.32685918  0.47662605  0.82255817     0.06600
C2104       C  0.33668672  0.48163205  0.84641521    -0.27700
H2105       H  0.25992696  0.44017263  0.82097779     0.11300
H2106       H  0.23973892  0.42276784  0.85842706     0.12400
H2107       H  0.35177484  0.48849121  0.89373947     0.11500
H2108       H  0.33113114  0.47191464  0.93123181     0.10700
H2109       H  0.29894100  0.44507897  0.94985419     0.16100
H2110       H  0.24153593  0.41289720  0.90351734     0.12000
H2111       H  0.29617994  0.46121991  0.80137284     0.14900
H2112       H  0.35472924  0.49070549  0.84818936     0.14700
C2113       C  0.24071851  0.43882222  0.13663178    -0.18200
C2114       C  0.22943290  0.44933400  0.15780989    -0.20400
C2115       C  0.20616563  0.46134728  0.15578286     0.20300
C2116       C  0.19455279  0.46366760  0.13202843    -0.03300
C2117       C  0.20603506  0.45335056  0.11068691    -0.06400
C2118       C  0.22895938  0.44039170  0.11315669     0.20600
C2119       C  0.19393690  0.45482156  0.08712359     0.18700
C2120       C  0.17092405  0.46730742  0.08497107    -0.17800
C2121       C  0.15943285  0.47741853  0.10621129    -0.20100
C2122       C  0.17087891  0.47519991  0.12978868     0.20200
C2123       C  0.15855966  0.48327304  0.15134936    -0.33100
C2124       C  0.16967249  0.48012429  0.17495088     0.00900
C2125       C  0.19372268  0.47002979  0.17719413    -0.24400
C2126       C  0.23899068  0.42805955  0.09235783    -0.29000
C2127       C  0.22638735  0.42862609  0.06935380     0.06600
C2128       C  0.20441596  0.44257121  0.06645246    -0.27700
H2129       H  0.25833781  0.42893021  0.13871072     0.11300
H2130       H  0.23853335  0.44741765  0.17587900     0.12400
H2131       H  0.16147093  0.46856409  0.06701844     0.11500
H2132       H  0.14129678  0.48636993  0.10431870     0.10700
H2133       H  0.13998576  0.49144140  0.14991296     0.16100
H2134       H  0.20202477  0.46768133  0.19561839     0.12000
H2135       H  0.25587603  0.41687381  0.09431400     0.14900
H2136       H  0.19484142  0.44270793  0.04855690     0.14700
C2137       C  0.41410241  0.32253307  0.02772162    -0.18200
C2138       C  0.39298612  0.33421982  0.01763827    -0.20400
C2139       C  0.36900431  0.32501011  0.02298534     0.20300
C2140       C  0.36613554  0.30326123  0.03776630    -0.03300
C2141       C  0.38740868  0.29153603  0.04799164    -0.06400
C2142       C  0.41147772  0.30152214  0.04329436     0.20600
C2143       C  0.38450419  0.27068842  0.06402030     0.18700
C2144       C  0.36053018  0.26113364  0.06887065    -0.17800
C2145       C  0.33939862  0.27267143  0.05854213    -0.20100
C2146       C  0.34196348  0.29398547  0.04334315     0.20200
C2147       C  0.32082924  0.30689257  0.03454700    -0.33100
C2148       C  0.32385059  0.32911668  0.02092749     0.00900
C2149       C  0.34778805  0.33783049  0.01475357    -0.24400
C2150       C  0.43230820  0.29123451  0.05543968    -0.29000
C2151       C  0.42915336  0.27143660  0.07230664     0.06600
C2152       C  0.40551284  0.26072080  0.07604312    -0.27700
H2153       H  0.43242030  0.33037181  0.02396471     0.11300
H2154       H  0.39536474  0.35086377  0.00620853     0.12400
H2155       H  0.35808664  0.24513793  0.08117524     0.11500
H2156       H  0.32102694  0.26535230  0.06300207     0.10700
H2157       H  0.30218313  0.30050660  0.03937212     0.16100
H2158       H  0.34981937  0.35507555  0.00411669     0.12000
H2159       H  0.45063738  0.29957685  0.05303845     0.14900
H2160       H  0.40334342  0.24557161  0.08943970     0.14700
C2161       C  0.13445017  0.47507333  0.99041880    -0.18200
C2162       C  0.11057264  0.48604994  0.98978199    -0.20400
C2163       C  0.08991769  0.47373058  0.00042559     0.20300
C2164       C  0.09340724  0.45014873  0.01193714    -0.03300
C2165       C  0.11759104  0.43909860  0.01266595    -0.06400
C2166       C  0.13820273  0.45156135  0.00176165     0.20600
C2167       C  0.12104868  0.41544085  0.02401599     0.18700
C2168       C  0.10037962  0.40312721  0.03463776    -0.17800
C2169       C  0.07647633  0.41401403  0.03387134    -0.20100
C2170       C  0.07270657  0.43747827  0.02250315     0.20200
C2171       C  0.04863908  0.44838264  0.02133725    -0.33100
C2172       C  0.04508404  0.47187660  0.00987952     0.00900
C2173       C  0.06583201  0.48445358  0.99958340    -0.24400
C2174       C  0.16205444  0.44011229  0.00198770    -0.29000
C2175       C  0.16565160  0.41624980  0.01292418     0.06600
C2176       C  0.14496637  0.40426705  0.02415957    -0.27700
H2177       H  0.14998536  0.48494408  0.98190418     0.11300
H2178       H  0.10823882  0.50415614  0.98082433     0.12400
H2179       H  0.10266389  0.38492360  0.04340539     0.11500
H2180       H  0.06088378  0.40399091  0.04209308     0.10700
H2181       H  0.03268019  0.43864232  0.02920750     0.16100
H2182       H  0.06307136  0.50251890  0.99062469     0.12000
H2183       H  0.17769529  0.44955637  0.99317147     0.14900
H2184       H  0.14732057  0.38588129  0.03254075     0.14700
C2185       C  0.36750258  0.46946182  0.02242497    -0.18200
C2186       C  0.39169905  0.47951397  0.02381009    -0.20400
C2187       C  0.41028128  0.47218113  0.00664286     0.20300
C2188       C  0.40426191  0.45481267  0.98760128    -0.03300
C2189       C  0.37977194  0.44443464  0.98634687    -0.06400
C2190       C  0.36135188  0.45170082  0.00394174     0.20600
C2191       C  0.37390293  0.42641376  0.96786693     0.18700
C2192       C  0.39233072  0.41966628  0.95023762    -0.17800
C2193       C  0.41641687  0.43019942  0.95124347    -0.20100
C2194       C  0.42276912  0.44756596  0.97005325     0.20200
C2195       C  0.44722130  0.45768916  0.97175537    -0.33100
C2196       C  0.45342488  0.47475913  0.99101327     0.00900
C2197       C  0.43473997  0.48186855  0.00827742    -0.24400
C2198       C  0.33738942  0.44055437  0.00328476    -0.29000
C2199       C  0.33163692  0.42159044  0.98572508     0.06600
C2200       C  0.35001932  0.41497739  0.96779762    -0.27700
H2201       H  0.35367065  0.47532005  0.03610420     0.11300
H2202       H  0.39592952  0.49294120  0.03847890     0.12400
H2203       H  0.38819549  0.40599890  0.93576959     0.11500
H2204       H  0.43021032  0.42446346  0.93747664     0.10700
H2205       H  0.46139481  0.45233249  0.95821662     0.16100
H2206       H  0.43928021  0.49526263  0.02290508     0.12000
H2207       H  0.32362210  0.44575114  0.01730497     0.14900
H2208       H  0.34590355  0.40051775  0.95410219     0.14700
C2209       C  0.26371524  0.27520287  0.88662467    -0.18200
C2210       C  0.26449695  0.26384223  0.86288760    -0.20400
C2211       C  0.25139318  0.27428913  0.84255697     0.20300
C2212       C  0.23699808  0.29619691  0.84630994    -0.03300
C2213       C  0.23635282  0.30779326  0.87031322    -0.06400
C2214       C  0.24990445  0.29733279  0.89054200     0.20600
C2215       C  0.22258534  0.33011480  0.87390897     0.18700
C2216       C  0.20918117  0.34034715  0.85363508    -0.17800
C2217       C  0.20963236  0.32876755  0.82997474    -0.20100
C2218       C  0.22362856  0.30677791  0.82599443     0.20200
C2219       C  0.22490262  0.29547547  0.80203185    -0.33100
C2220       C  0.23991628  0.27410606  0.79803403     0.00900
C2221       C  0.25283493  0.26350208  0.81847498    -0.24400
C2222       C  0.24994266  0.30948413  0.91411009    -0.29000
C2223       C  0.23687009  0.33223569  0.91774829     0.06600
C2224       C  0.22292364  0.34213533  0.89749656    -0.27700
H2225       H  0.27422975  0.26683923  0.90186902     0.11300
H2226       H  0.27558486  0.24697451  0.86037564     0.12400
H2227       H  0.19849067  0.35748782  0.85601631     0.11500
H2228       H  0.19927242  0.33722786  0.81467822     0.10700
H2229       H  0.21473463  0.30357226  0.78641282     0.16100
H2230       H  0.26431187  0.24696049  0.81545953     0.12000
H2231       H  0.26082029  0.30163565  0.92938032     0.14900
H2232       H  0.21274060  0.35959063  0.89989460     0.14700
C2233       C  0.24071428  0.36492868  0.24995616    -0.18200
C2234       C  0.22997204  0.38894004  0.24836949    -0.20400
C2235       C  0.20489071  0.39198139  0.24105431     0.20300
C2236       C  0.19078342  0.37050441  0.23460736    -0.03300
C2237       C  0.20162520  0.34621388  0.23625558    -0.06400
C2238       C  0.22661195  0.34342633  0.24427214     0.20600
C2239       C  0.18731619  0.32472010  0.23030601     0.18700
C2240       C  0.16244910  0.32777352  0.22239171    -0.17800
C2241       C  0.15172656  0.35175615  0.22081692    -0.20100
C2242       C  0.16564852  0.37321103  0.22709889     0.20200
C2243       C  0.15458101  0.39718934  0.22676653    -0.33100
C2244       C  0.16803316  0.41872510  0.23429146     0.00900
C2245       C  0.19345719  0.41594627  0.24085737    -0.24400
C2246       C  0.23691745  0.31920750  0.24679483    -0.29000
C2247       C  0.22271789  0.29764029  0.24121507     0.06600
C2248       C  0.19800996  0.30059722  0.23261518    -0.27700
H2249       H  0.26000463  0.36315874  0.25596661     0.11300
H2250       H  0.24119938  0.40512801  0.25325911     0.12400
H2251       H  0.15116288  0.31156502  0.21770440     0.11500
H2252       H  0.13237475  0.35349302  0.21500040     0.10700
H2253       H  0.13502846  0.39887513  0.22162088     0.16100
H2254       H  0.20409401  0.43225807  0.24662074     0.12000
H2255       H  0.25601354  0.31703105  0.25332286     0.14900
H2256       H  0.18715119  0.28416649  0.22774228     0.14700
C2257       C  0.25942522  0.22620242  0.38625879    -0.18200
C2258       C  0.26078942  0.23688758  0.36226486    -0.20400
C2259       C  0.24937681  0.22516425  0.34162630     0.20300
C2260       C  0.23612977  0.20259898  0.34527365    -0.03300
C2261       C  0.23472154  0.19179929  0.36960115    -0.06400
C2262       C  0.24660884  0.20355223  0.39016111     0.20600
C2263       C  0.22187855  0.16900865  0.37322888     0.18700
C2264       C  0.21014205  0.15748902  0.35261637    -0.17800
C2265       C  0.21148279  0.16818808  0.32858134    -0.20100
C2266       C  0.22461628  0.19064386  0.32458332     0.20200
C2267       C  0.22664632  0.20124282  0.30033536    -0.33100
C2268       C  0.24003484  0.22366329  0.29662759     0.00900
C2269       C  0.25118616  0.23550839  0.31741267    -0.24400
C2270       C  0.24611361  0.19213675  0.41406589    -0.29000
C2271       C  0.23410523  0.16888888  0.41776370     0.06600
C2272       C  0.22158979  0.15778277  0.39719775    -0.27700
H2273       H  0.26866786  0.23554430  0.40174707     0.11300
H2274       H  0.27099624  0.25426263  0.35981288     0.12400
H2275       H  0.20014215  0.13998712  0.35502267     0.11500
H2276       H  0.20243061  0.15873542  0.31304861     0.10700
H2277       H  0.21796050  0.19211037  0.28439544     0.16100
H2278       H  0.26146210  0.25280710  0.31459649     0.12000
H2279       H  0.25589610  0.20090738  0.42956304     0.14900
H2280       H  0.21224928  0.13991092  0.39962419     0.14700
C2281       C  0.38543704  0.25398295  0.22857615    -0.18200
C2282       C  0.36171675  0.25361526  0.23985442    -0.20400
C2283       C  0.34038765  0.24699721  0.22594334     0.20300
C2284       C  0.34301463  0.24061140  0.20040241    -0.03300
C2285       C  0.36703319  0.24080625  0.18905524    -0.06400
C2286       C  0.38837382  0.24762619  0.20316477     0.20600
C2287       C  0.36963266  0.23434662  0.16355608     0.18700
C2288       C  0.34827372  0.22806183  0.14952941    -0.17800
C2289       C  0.32452138  0.22806495  0.16068655    -0.20100
C2290       C  0.32163834  0.23422744  0.18613680     0.20200
C2291       C  0.29778297  0.23443609  0.19747071    -0.33100
C2292       C  0.29500861  0.24107366  0.22287798     0.00900
C2293       C  0.31646526  0.24704675  0.23700615    -0.24400
C2294       C  0.41216780  0.24814908  0.19158952    -0.29000
C2295       C  0.41497427  0.24150154  0.16614017     0.06600
C2296       C  0.39347457  0.23447481  0.15242215    -0.27700
H2297       H  0.40151006  0.25928074  0.23975947     0.11300
H2298       H  0.36003853  0.25865739  0.25948035     0.12400
H2299       H  0.34992572  0.22322250  0.12984407     0.11500
H2300       H  0.30837991  0.22326059  0.14937693     0.10700
H2301       H  0.28136043  0.22977063  0.18651453     0.16100
H2302       H  0.31437177  0.25239406  0.25653051     0.12000
H2303       H  0.42845586  0.25364822  0.20236703     0.14900
H2304       H  0.39516223  0.22949599  0.13278095     0.14700
C2305       C  0.31595114  0.16363697  0.29807475    -0.18200
C2306       C  0.32594339  0.13926788  0.29918929    -0.20400
C2307       C  0.31983385  0.12127586  0.28089794     0.20300
C2308       C  0.30313506  0.12785747  0.26149301    -0.03300
C2309       C  0.29322045  0.15262814  0.26021073    -0.06400
C2310       C  0.29972390  0.17065711  0.27855873     0.20600
C2311       C  0.27707557  0.15941587  0.24040426     0.18700
C2312       C  0.27062492  0.14129813  0.22234929    -0.17800
C2313       C  0.28030132  0.11680881  0.22370143    -0.20100
C2314       C  0.29675125  0.10987514  0.24307885     0.20200
C2315       C  0.30753822  0.08560988  0.24389094    -0.33100
C2316       C  0.32514134  0.07920075  0.26256753     0.00900
C2317       C  0.33073223  0.09713022  0.28126338    -0.24400
C2318       C  0.29001607  0.19533925  0.27699906    -0.29000
C2319       C  0.27401738  0.20231779  0.25717545     0.06600
C2320       C  0.26773475  0.18416796  0.23895773    -0.27700
H2321       H  0.32114201  0.17710115  0.31238980     0.11300
H2322       H  0.33868578  0.13456057  0.31428617     0.12400
H2323       H  0.25817513  0.14611455  0.20704253     0.11500
H2324       H  0.27515004  0.10335846  0.20935736     0.10700
H2325       H  0.30324191  0.07219442  0.22922144     0.16100
H2326       H  0.34419362  0.09250880  0.29576543     0.12000
H2327       H  0.29497758  0.20915290  0.29106857     0.14900
H2328       H  0.25532031  0.18935722  0.22372207     0.14700
C2329       C  0.29067171  0.33108195  0.17170564    -0.18200
C2330       C  0.29176573  0.34266609  0.14802227    -0.20400
C2331       C  0.27775213  0.33335989  0.12770790     0.20300
C2332       C  0.26258751  0.31203030  0.13142662    -0.03300
C2333       C  0.26118592  0.30054414  0.15546660    -0.06400
C2334       C  0.27534016  0.31005399  0.17574434     0.20600
C2335       C  0.24541344  0.27967640  0.15922087     0.18700
C2336       C  0.23154551  0.27022505  0.13895181    -0.17800
C2337       C  0.23315608  0.28136344  0.11520151    -0.20100
C2338       C  0.24851972  0.30233707  0.11121861     0.20200
C2339       C  0.24959163  0.31401837  0.08751459    -0.33100
C2340       C  0.26407190  0.33577428  0.08360935     0.00900
C2341       C  0.27826030  0.34520490  0.10392881    -0.24400
C2342       C  0.27372376  0.29847967  0.19961905    -0.29000
C2343       C  0.25770139  0.27783655  0.20349502     0.06600
C2344       C  0.24363051  0.26868129  0.18315645    -0.27700
H2345       H  0.30167787  0.33874137  0.18695189     0.11300
H2346       H  0.30355770  0.35900336  0.14562169     0.12400
H2347       H  0.21936886  0.25419066  0.14147539     0.11500
H2348       H  0.22215367  0.27368356  0.09995829     0.10700
H2349       H  0.23835029  0.30663556  0.07228828     0.16100
H2350       H  0.28941362  0.36197049  0.10134729     0.12000
H2351       H  0.28464897  0.30560974  0.21518129     0.14900
H2352       H  0.23131781  0.25279154  0.18604559     0.14700
C2353       C  0.83530409  0.27519381  0.43005617    -0.18200
C2354       C  0.85603341  0.26445335  0.41825675    -0.20400
C2355       C  0.88021625  0.26906108  0.42735310     0.20300
C2356       C  0.88366050  0.28372525  0.44911955    -0.03300
C2357       C  0.86279875  0.29472023  0.46087386    -0.06400
C2358       C  0.83854647  0.29075918  0.45100473     0.20600
C2359       C  0.86634221  0.31088423  0.48154622     0.18700
C2360       C  0.89048139  0.31485128  0.49109478    -0.17800
C2361       C  0.91119880  0.30369265  0.47957535    -0.20100
C2362       C  0.90803938  0.28857631  0.45826837     0.20200
C2363       C  0.92881197  0.27934469  0.44511306    -0.33100
C2364       C  0.92523339  0.26606266  0.42275731     0.00900
C2365       C  0.90109492  0.26039209  0.41428528    -0.24400
C2366       C  0.81819339  0.30367840  0.46129261    -0.29000
C2367       C  0.82207315  0.32091247  0.48066071     0.06600
C2368       C  0.84585542  0.32398384  0.49126669    -0.27700
H2369       H  0.81683149  0.27204224  0.42228616     0.11300
H2370       H  0.85321680  0.25314195  0.40158966     0.12400
H2371       H  0.89340057  0.32717250  0.50701152     0.11500
H2372       H  0.92974251  0.30755895  0.48681461     0.10700
H2373       H  0.94762550  0.28379716  0.45128711     0.16100
H2374       H  0.89865713  0.25002990  0.39691630     0.12000
H2375       H  0.79971704  0.30163519  0.45318420     0.14900
H2376       H  0.84856030  0.33761073  0.50615939     0.14700
C2377       C  0.10895407  0.17883479  0.49079566    -0.18200
C2378       C  0.08772744  0.18936087  0.47969128    -0.20400
C2379       C  0.09005699  0.20450950  0.45833623     0.20300
C2380       C  0.11411166  0.20998767  0.44865923    -0.03300
C2381       C  0.13548486  0.19963872  0.46000015    -0.06400
C2382       C  0.13276961  0.18349205  0.48078453     0.20600
C2383       C  0.15943702  0.20429366  0.44968767     0.18700
C2384       C  0.16184934  0.21989732  0.42867027    -0.17800
C2385       C  0.14059329  0.22998792  0.41725791    -0.20100
C2386       C  0.11672856  0.22469631  0.42684347     0.20200
C2387       C  0.09535604  0.23278902  0.41427702    -0.33100
C2388       C  0.07152953  0.22651272  0.42329096     0.00900
C2389       C  0.06877057  0.21319802  0.44569419    -0.24400
C2390       C  0.15378125  0.17117735  0.49026735    -0.29000
C2391       C  0.17725892  0.17496026  0.47929455     0.06600
C2392       C  0.18033735  0.19208254  0.45970437    -0.27700
H2393       H  0.10669552  0.16651111  0.50679915     0.11300
H2394       H  0.06944558  0.18500953  0.48731677     0.12400
H2395       H  0.18008087  0.22360492  0.42058170     0.11500
H2396       H  0.14275921  0.24136430  0.40054299     0.10700
H2397       H  0.09718574  0.24325788  0.39691297     0.16100
H2398       H  0.05021189  0.20832837  0.45231566     0.12000
H2399       H  0.15176305  0.15767292  0.50536365     0.14900
H2400       H  0.19863913  0.19468425  0.45135468     0.14700
C2401       C  0.02516985  0.38929028  0.26985105    -0.18200
C2402       C  0.01510065  0.36671282  0.27878601    -0.20400
C2403       C  0.02656598  0.35389496  0.29874463     0.20300
C2404       C  0.04829267  0.36410013  0.30987922    -0.03300
C2405       C  0.05791185  0.38713154  0.30145570    -0.06400
C2406       C  0.04657296  0.39966636  0.28105716     0.20600
C2407       C  0.07913960  0.39742916  0.31329208     0.18700
C2408       C  0.09069434  0.38479638  0.33321200    -0.17800
C2409       C  0.08151561  0.36174971  0.34117246    -0.20100
C2410       C  0.06038689  0.35138373  0.32963276     0.20200
C2411       C  0.05061746  0.32895720  0.33832884    -0.33100
C2412       C  0.02796375  0.31964675  0.32886997     0.00900
C2413       C  0.01631804  0.33160843  0.30847792    -0.24400
C2414       C  0.05749865  0.42175875  0.27172010    -0.29000
C2415       C  0.07937793  0.43121461  0.28284642     0.06600
C2416       C  0.08922397  0.41966607  0.30434705    -0.27700
H2417       H  0.01621817  0.39863416  0.25418130     0.11300
H2418       H  0.99840771  0.35923671  0.27003167     0.12400
H2419       H  0.10706882  0.39254495  0.34234821     0.11500
H2420       H  0.09076832  0.35215759  0.35652931     0.10700
H2421       H  0.05984693  0.31956335  0.35385203     0.16100
H2422       H  0.99875945  0.32447505  0.30125087     0.12000
H2423       H  0.04990393  0.43067241  0.25509885     0.14900
H2424       H  0.10587442  0.42716649  0.31324495     0.14700
C2425       C  0.02459784  0.36403763  0.46598965    -0.18200
C2426       C  0.02673288  0.38821176  0.47618916    -0.20400
C2427       C  0.00923889  0.40700727  0.47024259     0.20300
C2428       C  0.98922799  0.40126576  0.45397581    -0.03300
C2429       C  0.98721371  0.37679269  0.44341279    -0.06400
C2430       C  0.00501165  0.35811037  0.44945612     0.20600
C2431       C  0.96771891  0.37117890  0.42647344     0.18700
C2432       C  0.94998444  0.38992447  0.42087659    -0.17800
C2433       C  0.95174408  0.41398663  0.43162599    -0.20100
C2434       C  0.97144015  0.42002101  0.44803716     0.20200
C2435       C  0.97379890  0.44440508  0.45845976    -0.33100
C2436       C  0.99393208  0.45032698  0.47455733     0.00900
C2437       C  0.01151337  0.43140636  0.48022756    -0.24400
C2438       C  0.00339464  0.33407567  0.43836954    -0.29000
C2439       C  0.98464992  0.32846164  0.42061242     0.06600
C2440       C  0.96670488  0.34720117  0.41499824    -0.27700
H2441       H  0.03849964  0.35001923  0.47082672     0.11300
H2442       H  0.04219277  0.39223811  0.48869812     0.12400
H2443       H  0.93478527  0.38602975  0.40801181     0.11500
H2444       H  0.93781527  0.42799438  0.42684711     0.10700
H2445       H  0.96016279  0.45879194  0.45394513     0.16100
H2446       H  0.02694729  0.43572206  0.49269914     0.12000
H2447       H  0.01756826  0.32012162  0.44261018     0.14900
H2448       H  0.95223488  0.34327360  0.40130851     0.14700
C2449       C  0.88207407  0.26762313  0.27868947    -0.18200
C2450       C  0.85768244  0.26860127  0.26905385    -0.20400
C2451       C  0.83944232  0.25143134  0.27704878     0.20300
C2452       C  0.84607266  0.23259536  0.29441363    -0.03300
C2453       C  0.87078306  0.23169026  0.30428590    -0.06400
C2454       C  0.88875980  0.24952624  0.29663629     0.20600
C2455       C  0.87723107  0.21351197  0.32240110     0.18700
C2456       C  0.85924698  0.19564629  0.32955411    -0.17800
C2457       C  0.83489217  0.19637774  0.31959959    -0.20100
C2458       C  0.82788201  0.21508671  0.30237117     0.20200
C2459       C  0.80301947  0.21690470  0.29328911    -0.33100
C2460       C  0.79614439  0.23616496  0.27647597     0.00900
C2461       C  0.81464979  0.25304134  0.26823736    -0.24400
C2462       C  0.91270980  0.24970563  0.30781477    -0.29000
C2463       C  0.91884705  0.23273605  0.32714443     0.06600
C2464       C  0.90113006  0.21419199  0.33375620    -0.27700
H2465       H  0.89558375  0.28142651  0.27249337     0.11300
H2466       H  0.85297486  0.28308873  0.25558963     0.12400
H2467       H  0.86386949  0.18136110  0.34326005     0.11500
H2468       H  0.82137231  0.18258510  0.32579397     0.10700
H2469       H  0.78899132  0.20362483  0.29948116     0.16100
H2470       H  0.80959619  0.26760582  0.25495627     0.12000
H2471       H  0.92602378  0.26407755  0.30252349     0.14900
H2472       H  0.90560752  0.20084358  0.34843392     0.14700
C2473       C  0.13707575  0.23819741  0.26449567    -0.18200
C2474       C  0.11326375  0.23918356  0.27547998    -0.20400
C2475       C  0.10956244  0.25126218  0.29862130     0.20300
C2476       C  0.13017184  0.26258459  0.31071924    -0.03300
C2477       C  0.15431278  0.26168903  0.29952495    -0.06400
C2478       C  0.15772144  0.24933417  0.27635637     0.20600
C2479       C  0.17503214  0.27289372  0.31160841     0.18700
C2480       C  0.17131558  0.28481090  0.33485778    -0.17800
C2481       C  0.14747397  0.28556188  0.34599380    -0.20100
C2482       C  0.12673546  0.27449928  0.33411236     0.20200
C2483       C  0.10278248  0.27472815  0.34539092    -0.33100
C2484       C  0.08205405  0.26315656  0.33364262     0.00900
C2485       C  0.08573120  0.25174355  0.31003177    -0.24400
C2486       C  0.18169897  0.24812985  0.26551020    -0.29000
C2487       C  0.20245664  0.25940303  0.27717225     0.06600
C2488       C  0.19901072  0.27177804  0.30031115    -0.27700
H2489       H  0.13935298  0.22862789  0.24669304     0.11300
H2490       H  0.09773028  0.23031525  0.26591494     0.12400
H2491       H  0.18690233  0.29346528  0.34452777     0.11500
H2492       H  0.14528029  0.29474267  0.36400931     0.10700
H2493       H  0.10042290  0.28345740  0.36361625     0.16100
H2494       H  0.07017548  0.24253951  0.30081136     0.12000
H2495       H  0.18433047  0.23833350  0.24785881     0.14900
H2496       H  0.21496331  0.28025627  0.30953769     0.14700
C2497       C  0.80391927  0.48271677  0.59199927    -0.18200
C2498       C  0.81437935  0.49371561  0.61334774    -0.20400
C2499       C  0.81219175  0.48197528  0.63679488     0.20300
C2500       C  0.79841831  0.45953751  0.63910180    -0.03300
C2501       C  0.78804314  0.44839106  0.61759696    -0.06400
C2502       C  0.79124805  0.45978193  0.59381612     0.20600
C2503       C  0.77572478  0.42512778  0.61969787     0.18700
C2504       C  0.77266118  0.41384937  0.64328262    -0.17800
C2505       C  0.78289645  0.42496322  0.66465280    -0.20100
C2506       C  0.79631462  0.44744950  0.66264147     0.20200
C2507       C  0.80894270  0.45728910  0.68339281    -0.33100
C2508       C  0.82380801  0.47865365  0.68060658     0.00900
C2509       C  0.82479625  0.49142204  0.65768610    -0.24400
C2510       C  0.78294510  0.44732921  0.57219423    -0.29000
C2511       C  0.77222741  0.42350544  0.57431276     0.06600
C2512       C  0.76790563  0.41287761  0.59800611    -0.27700
H2513       H  0.80646876  0.49171159  0.57395347     0.11300
H2514       H  0.82484797  0.51100186  0.61139617     0.12400
H2515       H  0.76306191  0.39603488  0.64506943     0.11500
H2516       H  0.78107847  0.41554499  0.68258276     0.10700
H2517       H  0.80835909  0.44762656  0.70124577     0.16100
H2518       H  0.83658420  0.50787607  0.65582535     0.12000
H2519       H  0.78622289  0.45532344  0.55377996     0.14900
H2520       H  0.75928897  0.39451231  0.59943911     0.14700
C2521       C  0.77480711  0.52043672  0.89349209    -0.18200
C2522       C  0.78450776  0.50919473  0.87176815    -0.20400
C2523       C  0.79586753  0.52388939  0.85311467     0.20300
C2524       C  0.79617526  0.55025863  0.85572659    -0.03300
C2525       C  0.78613129  0.56154562  0.87733169    -0.06400
C2526       C  0.77609103  0.54655518  0.89675656     0.20600
C2527       C  0.78742089  0.58779366  0.88004554     0.18700
C2528       C  0.79759665  0.60270409  0.86095918    -0.17800
C2529       C  0.80815136  0.59148170  0.83991010    -0.20100
C2530       C  0.80815647  0.56530872  0.83758955     0.20200
C2531       C  0.82157823  0.55389952  0.81843105    -0.33100
C2532       C  0.82220550  0.52780413  0.81615285     0.00900
C2533       C  0.80842435  0.51276033  0.83277358    -0.24400
C2534       C  0.76856058  0.55793815  0.91938852    -0.29000
C2535       C  0.77120136  0.58397630  0.92246225     0.06600
C2536       C  0.77965195  0.59873376  0.90230217    -0.27700
H2537       H  0.76695162  0.50864365  0.90803792     0.11300
H2538       H  0.78400757  0.48894099  0.87001688     0.12400
H2539       H  0.79838934  0.62294844  0.86283311     0.11500
H2540       H  0.81701541  0.60318898  0.82585761     0.10700
H2541       H  0.83299017  0.56536887  0.80636621     0.16100
H2542       H  0.80937515  0.49248895  0.83117846     0.12000
H2543       H  0.76155483  0.54660036  0.93472450     0.14900
H2544       H  0.78090658  0.61898043  0.90408153     0.14700
C2545       C  0.91721491  0.53445976  0.57676234    -0.18200
C2546       C  0.90603237  0.53561316  0.60060982    -0.20400
C2547       C  0.91802229  0.52523995  0.62170920     0.20300
C2548       C  0.94176971  0.51405381  0.61874349    -0.03300
C2549       C  0.95303328  0.51278900  0.59460484    -0.06400
C2550       C  0.94062949  0.52285228  0.57342401     0.20600
C2551       C  0.97650908  0.50102185  0.59163611     0.18700
C2552       C  0.98876550  0.49117329  0.61276955    -0.17800
C2553       C  0.97767387  0.49246484  0.63657046    -0.20100
C2554       C  0.95404272  0.50358449  0.63977981     0.20200
C2555       C  0.94222418  0.50371016  0.66347712    -0.33100
C2556       C  0.91808077  0.51396597  0.66655065     0.00900
C2557       C  0.90640050  0.52520424  0.64551866    -0.24400
C2558       C  0.95171938  0.52080812  0.54935929    -0.29000
C2559       C  0.97494315  0.50856860  0.54626922     0.06600
C2560       C  0.98719182  0.49894961  0.56758900    -0.27700
H2561       H  0.90736795  0.54237920  0.56084972     0.11300
H2562       H  0.88780003  0.54435307  0.60248572     0.12400
H2563       H  0.00686898  0.48217926  0.61084979     0.11500
H2564       H  0.98745535  0.48439184  0.65244783     0.10700
H2565       H  0.95151015  0.49505415  0.67935570     0.16100
H2566       H  0.88785052  0.53324463  0.64745810     0.12000
H2567       H  0.94227429  0.52850020  0.53309817     0.14900
H2568       H  0.00509037  0.48958716  0.56532225     0.14700
C2569       C  0.98722539  0.50541816  0.88871416    -0.18200
C2570       C  0.97635039  0.50443590  0.86480053    -0.20400
C2571       C  0.95239161  0.49421297  0.86139758     0.20300
C2572       C  0.93961466  0.48419573  0.88232036    -0.03300
C2573       C  0.95060554  0.48523936  0.90657733    -0.06400
C2574       C  0.97437247  0.49623427  0.90977057     0.20600
C2575       C  0.93760286  0.47580598  0.92766306     0.18700
C2576       C  0.91403207  0.46473518  0.92408310    -0.17800
C2577       C  0.90315461  0.46373836  0.90010629    -0.20100
C2578       C  0.91560505  0.47376220  0.87913504     0.20200
C2579       C  0.90417922  0.47423337  0.85524445    -0.33100
C2580       C  0.91631216  0.48518154  0.83435693     0.00900
C2581       C  0.94074244  0.49456992  0.83762524    -0.24400
C2582       C  0.98470463  0.49826520  0.93396744    -0.29000
C2583       C  0.97167376  0.48957041  0.95519782     0.06600
C2584       C  0.94823310  0.47798959  0.95188559    -0.27700
H2585       H  0.00557953  0.51375875  0.89079488     0.11300
H2586       H  0.98654467  0.51208654  0.84899677     0.12400
H2587       H  0.90379683  0.45719405  0.93991379     0.11500
H2588       H  0.88475770  0.45548611  0.89804262     0.10700
H2589       H  0.88543512  0.46679778  0.85313270     0.16100
H2590       H  0.95040544  0.50293611  0.82184076     0.12000
H2591       H  0.00288426  0.50692552  0.93642354     0.14900
H2592       H  0.93829131  0.47089465  0.96811310     0.14700
C2593       C  0.76455704  0.63806745  0.74008162    -0.18200
C2594       C  0.77606721  0.61441385  0.74081261    -0.20400
C2595       C  0.80002369  0.61147487  0.75124556     0.20300
C2596       C  0.81236200  0.63264732  0.76128242    -0.03300
C2597       C  0.80073707  0.65661429  0.76049751    -0.06400
C2598       C  0.77676217  0.65929590  0.74975115     0.20600
C2599       C  0.81321867  0.67790261  0.77016965     0.18700
C2600       C  0.83705220  0.67488506  0.78086599    -0.17800
C2601       C  0.84852747  0.65117637  0.78167625    -0.20100
C2602       C  0.83644124  0.62995791  0.77177120     0.20200
C2603       C  0.84817693  0.60623048  0.77179285    -0.33100
C2604       C  0.83624413  0.58500011  0.76138738     0.00900
C2605       C  0.81197271  0.58784732  0.75142566    -0.24400
C2606       C  0.76552710  0.68316717  0.74859748    -0.29000
C2607       C  0.77793042  0.70454179  0.75782137     0.06600
C2608       C  0.80175965  0.70177971  0.76872537    -0.27700
H2609       H  0.74613318  0.63978546  0.73176585     0.11300
H2610       H  0.76627497  0.59841777  0.73302528     0.12400
H2611       H  0.84693057  0.69092171  0.78845340     0.11500
H2612       H  0.86701315  0.64948352  0.78985425     0.10700
H2613       H  0.86681901  0.60439505  0.77959179     0.16100
H2614       H  0.80251842  0.57175427  0.74340200     0.12000
H2615       H  0.74718308  0.68527793  0.74014762     0.14900
H2616       H  0.81133353  0.71817872  0.77593065     0.14700
C2617       C  0.72550660  0.11532225  0.74447506    -0.18200
C2618       C  0.73649307  0.13922262  0.74398335    -0.20400
C2619       C  0.72366679  0.16025823  0.75343339     0.20300
C2620       C  0.69966394  0.15705237  0.76392997    -0.03300
C2621       C  0.68859054  0.13277566  0.76456142    -0.06400
C2622       C  0.70145017  0.11184243  0.75450805     0.20600
C2623       C  0.66448928  0.12956233  0.77478829     0.18700
C2624       C  0.65186203  0.15055664  0.78468967    -0.17800
C2625       C  0.66274945  0.17453986  0.78397659    -0.20100
C2626       C  0.68657128  0.17812867  0.77341055     0.20200
C2627       C  0.69739593  0.20234303  0.77186475    -0.33100
C2628       C  0.72126900  0.20568719  0.76109800     0.00900
C2629       C  0.73430037  0.18442841  0.75223552    -0.24400
C2630       C  0.68987147  0.08796818  0.75412270    -0.29000
C2631       C  0.66547702  0.08457976  0.76368175     0.06600
C2632       C  0.65320116  0.10559676  0.77440853    -0.27700
H2633       H  0.73577114  0.09955864  0.73673491     0.11300
H2634       H  0.75497938  0.14129490  0.73590784     0.12400
H2635       H  0.63334733  0.14849433  0.79270419     0.11500
H2636       H  0.65238949  0.19035362  0.79148621     0.10700
H2637       H  0.68729742  0.21853906  0.77891171     0.16100
H2638       H  0.75268587  0.18685137  0.74398891     0.12000
H2639       H  0.69965486  0.07214871  0.74587305     0.14900
H2640       H  0.63447334  0.10349481  0.78191220     0.14700
C2641       C  0.71990918  0.21437809  0.88293707    -0.18200
C2642       C  0.71872489  0.22448409  0.85868561    -0.20400
C2643       C  0.73785860  0.21979282  0.84121146     0.20300
C2644       C  0.75833165  0.20459380  0.84820025    -0.03300
C2645       C  0.75944160  0.19421023  0.87272619    -0.06400
C2646       C  0.74019812  0.19925535  0.89022804     0.20600
C2647       C  0.77962312  0.17856905  0.87961353     0.18700
C2648       C  0.79865562  0.17372705  0.86202668    -0.17800
C2649       C  0.79771330  0.18424243  0.83788244    -0.20100
C2650       C  0.77761311  0.19968310  0.83068082     0.20200
C2651       C  0.77639788  0.21024462  0.80635462    -0.33100
C2652       C  0.75604985  0.22558757  0.79933823     0.00900
C2653       C  0.73685890  0.23008692  0.81692707    -0.24400
C2654       C  0.74124696  0.18864513  0.91447147    -0.29000
C2655       C  0.76094099  0.17242986  0.92133489     0.06600
C2656       C  0.78013507  0.16764479  0.90373052    -0.27700
H2657       H  0.70484975  0.21831669  0.89598265     0.11300
H2658       H  0.70280866  0.23604362  0.85360261     0.12400
H2659       H  0.81430712  0.16173899  0.86693680     0.11500
H2660       H  0.81269363  0.18018979  0.82478330     0.10700
H2661       H  0.79114606  0.20651282  0.79289429     0.16100
H2662       H  0.72115241  0.24188097  0.81165861     0.12000
H2663       H  0.72608390  0.19201405  0.92757120     0.14900
H2664       H  0.79527105  0.15500282  0.90868552     0.14700
C2665       C  0.64742657  0.21470118  0.65826206    -0.18200
C2666       C  0.67106198  0.21584208  0.66959728    -0.20400
C2667       C  0.67450966  0.22908762  0.69209552     0.20300
C2668       C  0.65377305  0.24119376  0.70334974    -0.03300
C2669       C  0.62981645  0.23991791  0.69194090    -0.06400
C2670       C  0.62669011  0.22670122  0.66922352     0.20600
C2671       C  0.60911233  0.25213115  0.70307118     0.18700
C2672       C  0.61257347  0.26542393  0.72558879    -0.17800
C2673       C  0.63626706  0.26673544  0.73684926    -0.20100
C2674       C  0.65700774  0.25475658  0.72585516     0.20200
C2675       C  0.68093263  0.25623599  0.73682183    -0.33100
C2676       C  0.70167299  0.24424391  0.72569383     0.00900
C2677       C  0.69831134  0.23058505  0.70340461    -0.24400
C2678       C  0.60304551  0.22609323  0.65757705    -0.29000
C2679       C  0.58226523  0.23854651  0.66822071     0.06600
C2680       C  0.58548590  0.25126449  0.69124341    -0.27700
H2681       H  0.64539577  0.20450185  0.64078838     0.11300
H2682       H  0.68671098  0.20646913  0.66065032     0.12400
H2683       H  0.59696554  0.27497547  0.73442522     0.11500
H2684       H  0.63838780  0.27723241  0.75413631     0.10700
H2685       H  0.68353739  0.26679803  0.75402113     0.16100
H2686       H  0.71424323  0.22131347  0.69484846     0.12000
H2687       H  0.60098506  0.21636045  0.63983245     0.14900
H2688       H  0.56980389  0.26114840  0.69958648     0.14700
C2689       C  0.71577998  0.34841396  0.64963290    -0.18200
C2690       C  0.71685929  0.33761961  0.67368348    -0.20400
C2691       C  0.72721239  0.31360064  0.67727825     0.20300
C2692       C  0.73615610  0.30025484  0.65614088    -0.03300
C2693       C  0.73504327  0.31118456  0.63177591    -0.06400
C2694       C  0.72501744  0.33547170  0.62854022     0.20600
C2695       C  0.74445783  0.29800079  0.61076843     0.18700
C2696       C  0.75440058  0.27381677  0.61426084    -0.17800
C2697       C  0.75545245  0.26302075  0.63825306    -0.20100
C2698       C  0.74661012  0.27613995  0.65936447     0.20200
C2699       C  0.74835045  0.26566664  0.68361097    -0.33100
C2700       C  0.73978476  0.27881555  0.70492162     0.00900
C2701       C  0.72904843  0.30281151  0.70154515    -0.24400
C2702       C  0.72504122  0.34664925  0.60446757    -0.29000
C2703       C  0.73523028  0.33405503  0.58339163     0.06600
C2704       C  0.74443902  0.30942964  0.58680890    -0.27700
H2705       H  0.70797776  0.36709067  0.64758656     0.11300
H2706       H  0.70980865  0.34821281  0.68954777     0.12400
H2707       H  0.76167805  0.26331905  0.59843402     0.11500
H2708       H  0.76346320  0.24443789  0.64032690     0.10700
H2709       H  0.75663993  0.24723219  0.68602603     0.16100
H2710       H  0.72229947  0.31306335  0.71776513     0.12000
H2711       H  0.71788898  0.36558342  0.60235639     0.14900
H2712       H  0.75236243  0.29941694  0.57097116     0.14700
C2713       C  0.83159590  0.32858401  0.71314377    -0.18200
C2714       C  0.84300141  0.35226436  0.71191743    -0.20400
C2715       C  0.83233552  0.37309409  0.72414078     0.20300
C2716       C  0.80970827  0.37004444  0.73740743    -0.03300
C2717       C  0.79826861  0.34606703  0.73880122    -0.06400
C2718       C  0.80932150  0.32516905  0.72670743     0.20600
C2719       C  0.77597552  0.34296129  0.75261786     0.18700
C2720       C  0.76507532  0.36383568  0.76449437    -0.17800
C2721       C  0.77631817  0.38752318  0.76302446    -0.20100
C2722       C  0.79875055  0.39082521  0.74972336     0.20200
C2723       C  0.81071439  0.41436060  0.74913204    -0.33100
C2724       C  0.83378641  0.41745559  0.73671583     0.00900
C2725       C  0.84420867  0.39671296  0.72388019    -0.24400
C2726       C  0.79804408  0.30127291  0.72862690    -0.29000
C2727       C  0.77602133  0.29805400  0.74273601     0.06600
C2728       C  0.76510341  0.31902343  0.75454461    -0.27700
H2729       H  0.84037426  0.31285410  0.70369042     0.11300
H2730       H  0.86035176  0.35422518  0.70159011     0.12400
H2731       H  0.74791318  0.36180367  0.77511792     0.11500
H2732       H  0.76760713  0.40322640  0.77259201     0.10700
H2733       H  0.80246933  0.43006163  0.75912241     0.16100
H2734       H  0.86192534  0.39876257  0.71419929     0.12000
H2735       H  0.80642398  0.28519885  0.71938360     0.14900
H2736       H  0.74808193  0.31658112  0.76534184     0.14700
C2737       C  0.52918922  0.91654805  0.82798078    -0.18200
C2738       C  0.51804703  0.89534608  0.83851461    -0.20400
C2739       C  0.51988010  0.87200508  0.82642727     0.20300
C2740       C  0.53175676  0.87010202  0.80287928    -0.03300
C2741       C  0.54301097  0.89143401  0.79230064     0.15200
C2742       C  0.54225363  0.91462592  0.80524056     0.20600
C2743       C  0.55634930  0.88919613  0.76955907     0.18700
C2744       C  0.55727718  0.86606080  0.75700371    -0.17800
C2745       C  0.54600373  0.84489059  0.76746565    -0.20100
C2746       C  0.53376553  0.84657497  0.79066432     0.20200
C2747       C  0.52494903  0.82494524  0.80264430    -0.33100
C2748       C  0.51497635  0.82674256  0.82682223     0.00900
C2749       C  0.51150136  0.85025294  0.83820448    -0.24400
C2750       C  0.55577474  0.93504788  0.79590167    -0.29000
C2751       C  0.57001020  0.93231647  0.77405069     0.06600
C2752       C  0.56971888  0.90977736  0.76053730    -0.27700
H2753       H  0.52834804  0.93422843  0.83803091     0.11300
H2754       H  0.50879729  0.89700782  0.85654318     0.12400
H2755       H  0.56740984  0.86416584  0.73948661     0.11500
H2756       H  0.54763948  0.82702762  0.75786156     0.10700
H2757       H  0.52751466  0.80665005  0.79406968     0.16100
H2758       H  0.50338402  0.85140887  0.85684205     0.12000
H2759       H  0.55625332  0.95256468  0.80619667     0.14900
H2760       H  0.58104709  0.90791429  0.74373476     0.14700
C2761       C  0.66340532  0.71474972  0.92041616    -0.18200
C2762       C  0.64226411  0.72456302  0.90863054    -0.20400
C2763       C  0.61887101  0.72348800  0.92050234     0.20300
C2764       C  0.61666221  0.71305594  0.94469900    -0.03300
C2765       C  0.63794681  0.70292168  0.95647596    -0.06400
C2766       C  0.66134942  0.70361626  0.94412922     0.20600
C2767       C  0.63563418  0.69110475  0.98005068     0.18700
C2768       C  0.61226377  0.69048308  0.99207417    -0.17800
C2769       C  0.59114594  0.70090536  0.98051555    -0.20100
C2770       C  0.59304875  0.71186081  0.95665843     0.20200
C2771       C  0.57170408  0.72073417  0.94406410    -0.33100
C2772       C  0.57391400  0.72999297  0.91956320     0.00900
C2773       C  0.59749104  0.73183000  0.90814963    -0.24400
C2774       C  0.68203479  0.69200797  0.95511359    -0.29000
C2775       C  0.67942629  0.67899953  0.97766700     0.06600
C2776       C  0.65648859  0.67901833  0.99047150    -0.27700
H2777       H  0.68122770  0.71526615  0.91071200     0.11300
H2778       H  0.64411347  0.73256419  0.89003038     0.12400
H2779       H  0.61022779  0.68150090  0.01019195     0.11500
H2780       H  0.57321735  0.69982359  0.98994792     0.10700
H2781       H  0.55338186  0.71925788  0.95267536     0.16100
H2782       H  0.59907826  0.73928816  0.88926838     0.12000
H2783       H  0.69981141  0.69191862  0.94548030     0.14900
H2784       H  0.65462254  0.66851848  0.00780119     0.14700
C2785       C  0.47588331  0.58924266  0.80863212    -0.18200
C2786       C  0.48751987  0.61036293  0.81885215    -0.20400
C2787       C  0.47824909  0.63448695  0.81373658     0.20300
C2788       C  0.45758972  0.63755622  0.79754532    -0.03300
C2789       C  0.44565409  0.61628144  0.78756231    -0.06400
C2790       C  0.45470561  0.59197458  0.79333983     0.20600
C2791       C  0.42399385  0.61929983  0.77273945     0.18700
C2792       C  0.41512690  0.64344736  0.76706605    -0.17800
C2793       C  0.42713215  0.66458337  0.77676887    -0.20100
C2794       C  0.44804062  0.66181537  0.79240679     0.20200
C2795       C  0.45865749  0.68270902  0.80420170    -0.33100
C2796       C  0.47808274  0.67936399  0.82144081     0.00900
C2797       C  0.48831617  0.65549935  0.82566276    -0.24400
C2798       C  0.44181841  0.57087285  0.78450290    -0.29000
C2799       C  0.41973773  0.57401084  0.77074715     0.06600
C2800       C  0.41105579  0.59808094  0.76462441    -0.27700
H2801       H  0.48301733  0.57075435  0.81324503     0.11300
H2802       H  0.50340135  0.60780501  0.83124150     0.12400
H2803       H  0.39857454  0.64595835  0.75558575     0.11500
H2804       H  0.41960213  0.68304673  0.77269198     0.10700
H2805       H  0.45075544  0.70124783  0.80134612     0.16100
H2806       H  0.50323269  0.65320596  0.83929413     0.12000
H2807       H  0.44820337  0.55213393  0.78926847     0.14900
H2808       H  0.39393652  0.60020851  0.75387147     0.14700
C2809       C  0.54142973  0.58038918  0.91790894    -0.18200
C2810       C  0.54238209  0.60420068  0.90663021    -0.20400
C2811       C  0.52811090  0.62428040  0.91613715     0.20300
C2812       C  0.51272825  0.62020490  0.93726239    -0.03300
C2813       C  0.51150791  0.59605731  0.94845878    -0.06400
C2814       C  0.52600989  0.57603617  0.93881892     0.20600
C2815       C  0.49563079  0.59194724  0.96920490     0.18700
C2816       C  0.48129454  0.61193866  0.97867473    -0.17800
C2817       C  0.48268237  0.63581026  0.96777690    -0.20100
C2818       C  0.49830663  0.64017061  0.94706065     0.20200
C2819       C  0.49929657  0.66400921  0.93571562    -0.33100
C2820       C  0.51405420  0.66823494  0.91421659     0.00900
C2821       C  0.52857387  0.64818395  0.90466825    -0.24400
C2822       C  0.52468374  0.55208396  0.95016841    -0.29000
C2823       C  0.50869109  0.54787557  0.97076974     0.06600
C2824       C  0.49426399  0.56793801  0.98008284    -0.27700
H2825       H  0.55265986  0.56531073  0.91015254     0.11300
H2826       H  0.55428633  0.60689461  0.89040052     0.12400
H2827       H  0.46897049  0.60911374  0.99456339     0.11500
H2828       H  0.47136381  0.65085771  0.97547507     0.10700
H2829       H  0.48776638  0.67905761  0.94311344     0.16100
H2830       H  0.53988761  0.65104524  0.88803686     0.12000
H2831       H  0.53583238  0.53670999  0.94288846     0.14900
H2832       H  0.48193209  0.56475554  0.99591979     0.14700
C2833       C  0.66994195  0.78822632  0.82970265    -0.18200
C2834       C  0.64588732  0.79004688  0.84025573    -0.20400
C2835       C  0.62537964  0.77774522  0.82922099     0.20300
C2836       C  0.62925146  0.76359061  0.80718660    -0.03300
C2837       C  0.65364554  0.76164631  0.79655724    -0.06400
C2838       C  0.67414390  0.77400888  0.80786831     0.20600
C2839       C  0.65751628  0.74718468  0.77471580     0.18700
C2840       C  0.63704241  0.73490380  0.76366011    -0.17800
C2841       C  0.61300800  0.73683797  0.77413054    -0.20100
C2842       C  0.60883813  0.75107996  0.79594301     0.20200
C2843       C  0.58478730  0.75249091  0.80698069    -0.33100
C2844       C  0.58072797  0.76600029  0.82943304     0.00900
C2845       C  0.60126665  0.77887477  0.84014789    -0.24400
C2846       C  0.69836951  0.77190438  0.79717549    -0.29000
C2847       C  0.70233922  0.75754296  0.77528650     0.06600
C2848       C  0.68173091  0.74522153  0.76431143    -0.27700
H2849       H  0.68532096  0.79788565  0.83873013     0.11300
H2850       H  0.64336006  0.80100230  0.85720316     0.12400
H2851       H  0.63962579  0.72369743  0.74688343     0.11500
H2852       H  0.59766459  0.72701269  0.76521400     0.10700
H2853       H  0.56942454  0.74225418  0.79856084     0.16100
H2854       H  0.59867318  0.78923409  0.85746388     0.12000
H2855       H  0.71408593  0.78141831  0.80577400     0.14900
H2856       H  0.68463678  0.73411092  0.74750523     0.14700
C2857       C  0.51798358  0.88593373  0.98367174    -0.18200
C2858       C  0.51566741  0.86197970  0.97305079    -0.20400
C2859       C  0.49927202  0.85777805  0.95290284     0.20300
C2860       C  0.48455316  0.87787479  0.94384182    -0.03300
C2861       C  0.48672208  0.90211265  0.95476294    -0.06400
C2862       C  0.50381413  0.90618143  0.97451269     0.20600
C2863       C  0.47212641  0.92231764  0.94566315     0.18700
C2864       C  0.45530316  0.91793023  0.92588451    -0.17800
C2865       C  0.45343619  0.89404849  0.91484108    -0.20100
C2866       C  0.46818059  0.87392549  0.92347105     0.20200
C2867       C  0.46751336  0.85022705  0.91156670    -0.33100
C2868       C  0.48291837  0.83025966  0.91982820     0.00900
C2869       C  0.49811179  0.83410795  0.94109970    -0.24400
C2870       C  0.50653239  0.93039871  0.98471083    -0.29000
C2871       C  0.49210079  0.95066873  0.97585242     0.06600
C2872       C  0.47475283  0.94647156  0.95640302    -0.27700
H2873       H  0.53106502  0.88867040  0.99895367     0.11300
H2874       H  0.52709016  0.84680945  0.98031709     0.12400
H2875       H  0.44382893  0.93308560  0.91867727     0.11500
H2876       H  0.44064471  0.89140018  0.89930005     0.10700
H2877       H  0.45564203  0.84760624  0.89529210     0.16100
H2878       H  0.51011963  0.81906523  0.94767440     0.12000
H2879       H  0.51968012  0.93351366  0.99988617     0.14900
H2880       H  0.46342218  0.96196749  0.94968822     0.14700
C2881       C  0.15540784  0.85141555  0.78399463    -0.18200
C2882       C  0.16643159  0.82753148  0.78299042    -0.20400
C2883       C  0.18949193  0.82388553  0.77090281     0.20300
C2884       C  0.20146806  0.84462977  0.75957435    -0.03300
C2885       C  0.19041179  0.86886662  0.76079493    -0.06400
C2886       C  0.16727958  0.87222951  0.77307846     0.20600
C2887       C  0.20236901  0.88963730  0.74953915     0.18700
C2888       C  0.22523829  0.88588626  0.73703945    -0.17800
C2889       C  0.23609481  0.86190126  0.73568883    -0.20100
C2890       C  0.22438431  0.84114084  0.74689865     0.20200
C2891       C  0.23506435  0.81696313  0.74553947    -0.33100
C2892       C  0.22343859  0.79625012  0.75709383     0.00900
C2893       C  0.20067191  0.79988883  0.76981483    -0.24400
C2894       C  0.15618921  0.89621695  0.77393794    -0.29000
C2895       C  0.16775089  0.91715618  0.76261796     0.06600
C2896       C  0.19105394  0.91363315  0.75060944    -0.27700
H2897       H  0.13753706  0.85360748  0.79335242     0.11300
H2898       H  0.15684389  0.81185966  0.79162769     0.12400
H2899       H  0.23469991  0.90150914  0.72817714     0.11500
H2900       H  0.25369225  0.85959134  0.72584571     0.10700
H2901       H  0.25250498  0.81416180  0.73551052     0.16100
H2902       H  0.19159554  0.78399949  0.77861414     0.12000
H2903       H  0.13817188  0.89843854  0.78302133     0.14900
H2904       H  0.20006412  0.92939382  0.74150439     0.14700
C2905       C  0.27870352  0.61359812  0.77095685    -0.18200
C2906       C  0.26853346  0.63785647  0.77255696    -0.20400
C2907       C  0.27606450  0.65677975  0.75584071     0.20300
C2908       C  0.29376278  0.65103082  0.73704389    -0.03300
C2909       C  0.30419677  0.62647913  0.73553661    -0.06400
C2910       C  0.29674508  0.60771103  0.75268417     0.20600
C2911       C  0.32250724  0.62091497  0.71728546     0.18700
C2912       C  0.32960374  0.63970333  0.70020404    -0.17800
C2913       C  0.31909256  0.66386856  0.70150777    -0.20100
C2914       C  0.30135157  0.66989798  0.72003661     0.20200
C2915       C  0.29127265  0.69442699  0.72203350    -0.33100
C2916       C  0.27383607  0.70037036  0.74099365     0.00900
C2917       C  0.26635236  0.68134550  0.75773613    -0.24400
C2918       C  0.30805038  0.58370833  0.75184413    -0.29000
C2919       C  0.32726276  0.57829286  0.73448920     0.06600
C2920       C  0.33396520  0.59698728  0.71695189    -0.27700
H2921       H  0.27270962  0.59951031  0.78431053     0.11300
H2922       H  0.25488577  0.64187534  0.78705395     0.12400
H2923       H  0.34355233  0.63579593  0.68596312     0.11500
H2924       H  0.32511687  0.67796806  0.68819034     0.10700
H2925       H  0.29711222  0.70892689  0.70905918     0.16100
H2926       H  0.25283571  0.68575564  0.77226810     0.12000
H2927       H  0.30283012  0.56969352  0.76560864     0.14900
H2928       H  0.34866889  0.59314138  0.70346269     0.14700
C2929       C  0.38512923  0.75544121  0.77108602    -0.18200
C2930       C  0.36122066  0.75615020  0.76025169    -0.20400
C2931       C  0.34042733  0.74634011  0.77301814     0.20300
C2932       C  0.34385717  0.73529490  0.79681478    -0.03300
C2933       C  0.36808896  0.73453337  0.80776631    -0.06400
C2934       C  0.38879501  0.74487086  0.79494423     0.20600
C2935       C  0.37148059  0.72388352  0.83172810     0.18700
C2936       C  0.35071157  0.71381993  0.84438653    -0.17800
C2937       C  0.32677156  0.71452997  0.83355803    -0.20100
C2938       C  0.32304770  0.72537338  0.80982162     0.20200
C2939       C  0.29889562  0.72680719  0.79905459    -0.33100
C2940       C  0.29529726  0.73838530  0.77557096     0.00900
C2941       C  0.31624667  0.74776187  0.76260234    -0.24400
C2942       C  0.41263103  0.74506233  0.80641044    -0.29000
C2943       C  0.41615357  0.73505154  0.83063553     0.06600
C2944       C  0.39541028  0.72403740  0.84287040    -0.27700
H2945       H  0.40072651  0.76343019  0.76090536     0.11300
H2946       H  0.35895551  0.76466439  0.74190950     0.12400
H2947       H  0.35292139  0.70559863  0.86285557     0.11500
H2948       H  0.31113380  0.70683274  0.84387022     0.10700
H2949       H  0.28297718  0.71920084  0.80895890     0.16100
H2950       H  0.31356913  0.75657652  0.74444963     0.12000
H2951       H  0.42827815  0.75361768  0.79674249     0.14900
H2952       H  0.39765675  0.71626394  0.86152532     0.14700
C2953       C  0.22447011  0.57509211  0.33523295    -0.18200
C2954       C  0.23481230  0.58590441  0.35670965    -0.20400
C2955       C  0.23069626  0.57507982  0.38033992     0.20300
C2956       C  0.21693398  0.55264345  0.38244282    -0.03300
C2957       C  0.20647741  0.54178417  0.36081572    -0.06400
C2958       C  0.20987665  0.55335050  0.33715176     0.20600
C2959       C  0.19143148  0.52019216  0.36306737     0.18700
C2960       C  0.18780631  0.50907233  0.38664632    -0.17800
C2961       C  0.19830687  0.51979615  0.40811838    -0.20100
C2962       C  0.21250432  0.54181276  0.40629225     0.20200
C2963       C  0.22128099  0.55392343  0.42792473    -0.33100
C2964       C  0.23379503  0.57683908  0.42572828     0.00900
C2965       C  0.23902049  0.58699573  0.40203816    -0.24400
C2966       C  0.19737092  0.54382907  0.31613900    -0.29000
C2967       C  0.18141225  0.52325377  0.31879402     0.06600
C2968       C  0.17904771  0.51102079  0.34192913    -0.27700
H2969       H  0.22722945  0.58415463  0.31724646     0.11300
H2970       H  0.24543447  0.60312485  0.35493370     0.12400
H2971       H  0.17626032  0.49248610  0.38856622     0.11500
H2972       H  0.19472759  0.51128396  0.42622356     0.10700
H2973       H  0.21711271  0.54643067  0.44637136     0.16100
H2974       H  0.24876568  0.60478761  0.40061518     0.12000
H2975       H  0.19875657  0.55329188  0.29819477     0.14900
H2976       H  0.16633697  0.49526960  0.34372287     0.14700
C2977       C  0.32018741  0.50584925  0.60876721    -0.18200
C2978       C  0.30944534  0.51726731  0.58775661    -0.20400
C2979       C  0.29368488  0.53815365  0.59061943     0.20300
C2980       C  0.28761624  0.54681838  0.61499175    -0.03300
C2981       C  0.29819802  0.53513389  0.63616642    -0.06400
C2982       C  0.31513367  0.51503222  0.63292962     0.20600
C2983       C  0.29309742  0.54459560  0.66045379     0.18700
C2984       C  0.27665251  0.56492889  0.66339401    -0.17800
C2985       C  0.26631503  0.57665727  0.64236903    -0.20100
C2986       C  0.27222220  0.56812556  0.61815851     0.20200
C2987       C  0.26422233  0.58138327  0.59704197    -0.33100
C2988       C  0.27125976  0.57352510  0.57292079     0.00900
C2989       C  0.28509652  0.55144564  0.56960086    -0.24400
C2990       C  0.32787968  0.50553792  0.65376830    -0.29000
C2991       C  0.32372955  0.51578677  0.67763365     0.06600
C2992       C  0.30575258  0.53457916  0.68116380    -0.27700
H2993       H  0.33306888  0.49033758  0.60607111     0.11300
H2994       H  0.31420641  0.51035357  0.56923080     0.12400
H2995       H  0.27253486  0.57234562  0.68188697     0.11500
H2996       H  0.25436693  0.59291534  0.64500404     0.10700
H2997       H  0.25335443  0.59846799  0.59933801     0.16100
H2998       H  0.29051924  0.54564890  0.55085671     0.12000
H2999       H  0.34205802  0.49112874  0.65130166     0.14900
H3000       H  0.30287117  0.54247612  0.69969067     0.14700
C3001       C  0.35886800  0.73570725  0.42292876    -0.18200
C3002       C  0.33797809  0.72455341  0.43390636    -0.20400
C3003       C  0.34098107  0.70753218  0.45371219     0.20300
C3004       C  0.36512915  0.70266006  0.46349434    -0.03300
C3005       C  0.38613913  0.71408567  0.45261108    -0.06400
C3006       C  0.38294869  0.73006031  0.43175617     0.20600
C3007       C  0.41042423  0.70818853  0.46146677     0.18700
C3008       C  0.41333021  0.69184982  0.48186873    -0.17800
C3009       C  0.39245090  0.68030688  0.49254693    -0.20100
C3010       C  0.36843128  0.68510619  0.48303426     0.20200
C3011       C  0.34781746  0.67157794  0.49162826    -0.33100
C3012       C  0.32416607  0.67561626  0.48103595     0.00900
C3013       C  0.32049357  0.69412846  0.46287357    -0.24400
C3014       C  0.40396416  0.73874302  0.41905123    -0.29000
C3015       C  0.42794726  0.73167589  0.42694053     0.06600
C3016       C  0.43134181  0.71738608  0.44865674    -0.27700
H3017       H  0.35626298  0.74805465  0.40698104     0.11300
H3018       H  0.31957895  0.72847594  0.42628073     0.12400
H3019       H  0.43180018  0.68723224  0.48890236     0.11500
H3020       H  0.39515947  0.66697878  0.50766386     0.10700
H3021       H  0.35027857  0.65709148  0.50572446     0.16100
H3022       H  0.30205641  0.69691883  0.45483393     0.12000
H3023       H  0.40171591  0.74988584  0.40215544     0.14900
H3024       H  0.45005941  0.71191873  0.45436100     0.14700
C3025       C  0.42491169  0.58311233  0.53577900    -0.18200
C3026       C  0.40097589  0.59398488  0.53677221    -0.20400
C3027       C  0.38037861  0.58216479  0.52540886     0.20300
C3028       C  0.38399065  0.55905349  0.51301557    -0.03300
C3029       C  0.40823729  0.54804687  0.51198909    -0.06400
C3030       C  0.42883893  0.56016954  0.52338187     0.20600
C3031       C  0.41188271  0.52506376  0.49934194     0.18700
C3032       C  0.39132921  0.51327933  0.48790949    -0.17800
C3033       C  0.36740934  0.52417068  0.48889721    -0.20100
C3034       C  0.36346859  0.54709777  0.50135936     0.20200
C3035       C  0.33952606  0.55847056  0.50193445    -0.33100
C3036       C  0.33572367  0.58182268  0.51390304     0.00900
C3037       C  0.35639135  0.59330513  0.52583150    -0.24400
C3038       C  0.45295475  0.54927568  0.52196328    -0.29000
C3039       C  0.45668586  0.52638182  0.50930608     0.06600
C3040       C  0.43601143  0.51440172  0.49814200    -0.27700
H3041       H  0.44040886  0.59275417  0.54462503     0.11300
H3042       H  0.39860592  0.61178579  0.54633262     0.12400
H3043       H  0.39377057  0.49563999  0.47806862     0.11500
H3044       H  0.35197944  0.51468914  0.47976393     0.10700
H3045       H  0.32401157  0.54944706  0.49247256     0.16100
H3046       H  0.35398520  0.61133005  0.53496981     0.12000
H3047       H  0.46883129  0.55863099  0.53045076     0.14900
H3048       H  0.43886394  0.49684387  0.48823230     0.14700
C3049       C  0.11670343  0.51198196  0.51189388    -0.18200
C3050       C  0.14028009  0.52349766  0.51063486    -0.20400
C3051       C  0.14309966  0.54726092  0.49955655     0.20300
C3052       C  0.12176211  0.55955399  0.48983420    -0.03300
C3053       C  0.09788756  0.54782408  0.49098057    -0.06400
C3054       C  0.09537797  0.52390307  0.50202721     0.20600
C3055       C  0.07656355  0.56004408  0.48109823     0.18700
C3056       C  0.07926281  0.58411206  0.47068824    -0.17800
C3057       C  0.10279217  0.59576573  0.46972764    -0.20100
C3058       C  0.12423757  0.58358139  0.47902307     0.20200
C3059       C  0.14800796  0.59508720  0.47785336    -0.33100
C3060       C  0.16957992  0.58302504  0.48743349     0.00900
C3061       C  0.16678587  0.55898881  0.49825360    -0.24400
C3062       C  0.07162761  0.51239427  0.50311741    -0.29000
C3063       C  0.05027240  0.52416178  0.49288982     0.06600
C3064       C  0.05298091  0.54805081  0.48186296    -0.27700
H3065       H  0.11517239  0.49364828  0.52053791     0.11300
H3066       H  0.15635222  0.51377208  0.51835468     0.12400
H3067       H  0.06313745  0.59395739  0.46323805     0.11500
H3068       H  0.10422527  0.61433261  0.46157657     0.10700
H3069       H  0.14961180  0.61367289  0.46977248     0.16100
H3070       H  0.18298608  0.54954140  0.50606573     0.12000
H3071       H  0.06966040  0.49420782  0.51200998     0.14900
H3072       H  0.03671285  0.55733453  0.47403371     0.14700
C3073       C  0.26449109  0.73393581  0.63832545    -0.18200
C3074       C  0.26383061  0.72305229  0.61441739    -0.20400
C3075       C  0.25011780  0.70101989  0.61011103     0.20300
C3076       C  0.23670161  0.69002456  0.63011311    -0.03300
C3077       C  0.23736743  0.70102098  0.65430207    -0.06400
C3078       C  0.25145808  0.72299492  0.65838602     0.20600
C3079       C  0.22428228  0.68981576  0.67445251     0.18700
C3080       C  0.21041930  0.66790172  0.67007396    -0.17800
C3081       C  0.20982246  0.65698007  0.64614174    -0.20100
C3082       C  0.22303723  0.66777806  0.62608401     0.20200
C3083       C  0.22334981  0.65636206  0.60227164    -0.33100
C3084       C  0.23720667  0.66680480  0.58232122     0.00900
C3085       C  0.25014812  0.68945673  0.58635100    -0.24400
C3086       C  0.25253683  0.73346639  0.68250947    -0.29000
C3087       C  0.23981015  0.72230391  0.70268068     0.06600
C3088       C  0.22558156  0.70055508  0.69860430    -0.27700
H3089       H  0.27538889  0.75082511  0.64117524     0.11300
H3090       H  0.27427360  0.73174540  0.59933130     0.12400
H3091       H  0.20022013  0.65904744  0.68523222     0.11500
H3092       H  0.19921156  0.63989639  0.64338149     0.10700
H3093       H  0.21334710  0.63890493  0.59948436     0.16100
H3094       H  0.26102327  0.69761563  0.57126118     0.12000
H3095       H  0.26353779  0.75023674  0.68577876     0.14900
H3096       H  0.21581863  0.69197570  0.71421547     0.14700
C3097       C  0.35283772  0.78535931  0.34352915    -0.18200
C3098       C  0.32903271  0.78476490  0.33243790    -0.20400
C3099       C  0.32512872  0.77206974  0.30968037     0.20300
C3100       C  0.34559397  0.75985655  0.29802951    -0.03300
C3101       C  0.36972675  0.76054177  0.30922032    -0.06400
C3102       C  0.37332127  0.77332340  0.33209749     0.20600
C3103       C  0.39014387  0.74818690  0.29768592     0.18700
C3104       C  0.38619657  0.73533444  0.27499419    -0.17800
C3105       C  0.36235967  0.73460978  0.26396093    -0.20100
C3106       C  0.34191929  0.74675320  0.27533385     0.20200
C3107       C  0.31787962  0.74587220  0.26452033    -0.33100
C3108       C  0.29740473  0.75814893  0.27584835     0.00900
C3109       C  0.30116856  0.77121987  0.29848052    -0.24400
C3110       C  0.39716944  0.77348921  0.34341253    -0.29000
C3111       C  0.41771704  0.76088780  0.33238125     0.06600
C3112       C  0.41396822  0.74848751  0.30925814    -0.27700
H3113       H  0.35520191  0.79518434  0.36117202     0.11300
H3114       H  0.31362117  0.79417777  0.34175048     0.12400
H3115       H  0.40154502  0.72567909  0.26582452     0.11500
H3116       H  0.35989885  0.72444820  0.24652059     0.10700
H3117       H  0.31498293  0.73556828  0.24721324     0.16100
H3118       H  0.28544054  0.78051049  0.30738856     0.12000
H3119       H  0.39954467  0.78298539  0.36123982     0.14900
H3120       H  0.42941062  0.73852407  0.30057374     0.14700
C3121       C  0.27236678  0.88688723  0.24898594    -0.18200
C3122       C  0.26117435  0.86316259  0.24988999    -0.20400
C3123       C  0.27485005  0.84156007  0.24346355     0.20300
C3124       C  0.29992664  0.84390565  0.23557972    -0.03300
C3125       C  0.31121077  0.86792640  0.23456231    -0.06400
C3126       C  0.29744016  0.88948554  0.24158236     0.20600
C3127       C  0.33638995  0.87029477  0.22703782     0.18700
C3128       C  0.34996812  0.84867588  0.22033828    -0.17800
C3129       C  0.33881720  0.82489506  0.22139209    -0.20100
C3130       C  0.31384527  0.82223985  0.22912531     0.20200
C3131       C  0.30264773  0.79835679  0.23085574    -0.33100
C3132       C  0.27781239  0.79592981  0.23923071     0.00900
C3133       C  0.26400996  0.81764615  0.24520558    -0.24400
C3134       C  0.30915062  0.91313834  0.24180203    -0.29000
C3135       C  0.33451389  0.91562914  0.23508250     0.06600
C3136       C  0.34775285  0.89410950  0.22704204    -0.27700
H3137       H  0.26147477  0.90319810  0.25438793     0.11300
H3138       H  0.24187038  0.86168177  0.25591972     0.12400
H3139       H  0.36935630  0.85012306  0.21457645     0.11500
H3140       H  0.34982343  0.80853606  0.21638392     0.10700
H3141       H  0.31322222  0.78172021  0.22586328     0.16100
H3142       H  0.24485323  0.81579337  0.25165364     0.12000
H3143       H  0.29870356  0.92949232  0.24793766     0.14900
H3144       H  0.36723423  0.89569552  0.22165466     0.14700
C3145       C  0.17186756  0.67076105  0.29124983    -0.18200
C3146       C  0.16119966  0.64674727  0.29194234    -0.20400
C3147       C  0.17110248  0.62711758  0.27733195     0.20300
C3148       C  0.19214335  0.63166561  0.26207571    -0.03300
C3149       C  0.20286442  0.65595468  0.26129348    -0.06400
C3150       C  0.19262312  0.67566261  0.27588532     0.20600
C3151       C  0.22361630  0.66057209  0.24564076     0.18700
C3152       C  0.23364934  0.64094053  0.23118581    -0.17800
C3153       C  0.22305891  0.61693271  0.23198738    -0.20100
C3154       C  0.20220857  0.61208079  0.24724804     0.20200
C3155       C  0.19089451  0.58820110  0.24744045    -0.33100
C3156       C  0.16941494  0.58366270  0.26205278     0.00900
C3157       C  0.15995357  0.60322237  0.27725988    -0.24400
C3158       C  0.20317413  0.69988652  0.27461872    -0.29000
C3159       C  0.22370008  0.70449681  0.25882052     0.06600
C3160       C  0.23382941  0.68477583  0.24451032    -0.27700
H3161       H  0.16373442  0.68556526  0.30258947     0.11300
H3162       H  0.14502238  0.64358198  0.30377013     0.12400
H3163       H  0.24961354  0.64419945  0.21909239     0.11500
H3164       H  0.23104759  0.60219664  0.22045728     0.10700
H3165       H  0.19828233  0.57343815  0.23553538     0.16100
H3166       H  0.14342827  0.60006251  0.28861123     0.12000
H3167       H  0.19537784  0.71513423  0.28561938     0.14900
H3168       H  0.24968015  0.68843099  0.23234685     0.14700
C3169       C  0.28775946  0.65618164  0.35151346    -0.18200
C3170       C  0.28586082  0.66710018  0.32760653    -0.20400
C3171       C  0.27380974  0.69032946  0.32430575     0.20300
C3172       C  0.26389050  0.70278182  0.34554946    -0.03300
C3173       C  0.26585323  0.69173292  0.36977925    -0.06400
C3174       C  0.27766012  0.66822439  0.37272532     0.20600
C3175       C  0.25554540  0.70397042  0.39093497     0.18700
C3176       C  0.24377512  0.72736017  0.38769439    -0.17800
C3177       C  0.24186094  0.73828283  0.36380171    -0.20100
C3178       C  0.25168243  0.72609298  0.34255932     0.20200
C3179       C  0.24932653  0.73668914  0.31840891    -0.33100
C3180       C  0.25900695  0.72438754  0.29706336     0.00900
C3181       C  0.27132473  0.70119978  0.30020259    -0.24400
C3182       C  0.27852539  0.65682590  0.39663351    -0.29000
C3183       C  0.26747640  0.66838256  0.41784024     0.06600
C3184       C  0.25650101  0.69231730  0.41476672    -0.27700
H3185       H  0.29690099  0.63810301  0.35335956     0.11300
H3186       H  0.29365031  0.65722454  0.31162650     0.12400
H3187       H  0.23575284  0.73711281  0.40363578     0.11500
H3188       H  0.23247154  0.75622798  0.36191349     0.10700
H3189       H  0.23983367  0.75454833  0.31611162     0.16100
H3190       H  0.27884947  0.69165180  0.28389084     0.12000
H3191       H  0.28706278  0.63844920  0.39850834     0.14900
H3192       H  0.24790037  0.70151541  0.43074100     0.14700
C3193       C  0.86563501  0.74446753  0.05927939    -0.18200
C3194       C  0.84426696  0.73350940  0.04894554    -0.20400
C3195       C  0.84524295  0.70897063  0.03947459     0.20300
C3196       C  0.86821572  0.69568622  0.03947429    -0.03300
C3197       C  0.88968084  0.70671606  0.04974071    -0.06400
C3198       C  0.88823015  0.73104092  0.06014540     0.20600
C3199       C  0.91226498  0.69286946  0.05083050     0.18700
C3200       C  0.91351516  0.66862075  0.04074463    -0.17800
C3201       C  0.89220290  0.65768230  0.03049265    -0.20100
C3202       C  0.86947796  0.67088421  0.03034362     0.20200
C3203       C  0.84771561  0.65923723  0.02233893    -0.33100
C3204       C  0.82470935  0.67187705  0.02353808     0.00900
C3205       C  0.82349446  0.69697541  0.03113311    -0.24400
C3206       C  0.90906382  0.74087746  0.07243727    -0.29000
C3207       C  0.93092505  0.72652182  0.07451169     0.06600
C3208       C  0.93281484  0.70299804  0.06321403    -0.27700
H3209       H  0.86433307  0.76316664  0.06719774     0.11300
H3210       H  0.82683118  0.74393346  0.04902492     0.12400
H3211       H  0.93076214  0.65788211  0.04144537     0.11500
H3212       H  0.89329665  0.63864173  0.02337552     0.10700
H3213       H  0.84851570  0.63992372  0.01586940     0.16100
H3214       H  0.80558145  0.70655805  0.03183363     0.12000
H3215       H  0.90786250  0.75898836  0.08169721     0.14900
H3216       H  0.94980902  0.69214206  0.06510279     0.14700
C3217       C  0.02929621  0.58912757  0.18200982    -0.18200
C3218       C  0.01915486  0.61044537  0.17071183    -0.20400
C3219       C  0.02546403  0.63442218  0.17952056     0.20300
C3220       C  0.04186738  0.63718246  0.20001954    -0.03300
C3221       C  0.05206749  0.61570558  0.21141143    -0.06400
C3222       C  0.04582709  0.59155812  0.20226118     0.20600
C3223       C  0.06929220  0.61841025  0.23125554     0.18700
C3224       C  0.07589871  0.64244578  0.23975238    -0.17800
C3225       C  0.06568708  0.66380683  0.22846392    -0.20100
C3226       C  0.04877100  0.66140046  0.20851288     0.20200
C3227       C  0.03932585  0.68268682  0.19624378    -0.33100
C3228       C  0.02348070  0.67968953  0.17559298     0.00900
C3229       C  0.01637842  0.65573444  0.16753891    -0.24400
C3230       C  0.05718528  0.57035478  0.21273704    -0.29000
C3231       C  0.07480392  0.57319506  0.23186945     0.06600
C3232       C  0.08052634  0.59703500  0.24139536    -0.27700
H3233       H  0.02455595  0.57077353  0.17464887     0.11300
H3234       H  0.00670254  0.60820971  0.15482854     0.12400
H3235       H  0.08927552  0.64471826  0.25486148     0.11500
H3236       H  0.07131559  0.68219218  0.23506246     0.10700
H3237       H  0.04514943  0.70134332  0.20188819     0.16100
H3238       H  0.00442041  0.65375030  0.15128172     0.12000
H3239       H  0.05352820  0.55187635  0.20504618     0.14900
H3240       H  0.09480817  0.59895827  0.25574068     0.14700
C3241       C  0.00314293  0.61224153  0.01250088    -0.18200
C3242       C  0.00300781  0.63604551  0.02375700    -0.20400
C3243       C  0.99610566  0.63895508  0.04901884     0.20300
C3244       C  0.98932799  0.61750579  0.06303664    -0.03300
C3245       C  0.98958032  0.59338951  0.05168632    -0.06400
C3246       C  0.99645447  0.59080232  0.02627599     0.20600
C3247       C  0.98306618  0.57189708  0.06578441     0.18700
C3248       C  0.97658260  0.57475504  0.09116216    -0.17800
C3249       C  0.97611430  0.59861253  0.10231434    -0.20100
C3250       C  0.98231562  0.62012360  0.08838793     0.20200
C3251       C  0.98175101  0.64414134  0.09942580    -0.33100
C3252       C  0.98888961  0.66573371  0.08581298     0.00900
C3253       C  0.99604839  0.66285294  0.06051478    -0.24400
C3254       C  0.99678339  0.56683324  0.01515420    -0.29000
C3255       C  0.99019480  0.54528205  0.02894078     0.06600
C3256       C  0.98329877  0.54799140  0.05430750    -0.27700
H3257       H  0.00853690  0.61059774  0.99297147     0.11300
H3258       H  0.00830643  0.65221487  0.01265915     0.12400
H3259       H  0.97174376  0.55852728  0.10238635     0.11500
H3260       H  0.97087921  0.60023363  0.12188835     0.10700
H3261       H  0.97599106  0.64591413  0.11881845     0.16100
H3262       H  0.00161501  0.67918530  0.04978210     0.12000
H3263       H  0.00266892  0.56479933  0.99579183     0.14900
H3264       H  0.97850138  0.53146805  0.06512445     0.14700
C3265       C  0.86105940  0.74794354  0.24023625    -0.18200
C3266       C  0.88498175  0.74869724  0.22937516    -0.20400
C3267       C  0.88815679  0.75591921  0.20422461     0.20300
C3268       C  0.86686358  0.76301957  0.19014129    -0.03300
C3269       C  0.84263535  0.76242708  0.20119641    -0.06400
C3270       C  0.83974176  0.75455375  0.22626818     0.20600
C3271       C  0.82131497  0.76935127  0.18706560     0.18700
C3272       C  0.82447682  0.77673550  0.16196708    -0.17800
C3273       C  0.84837280  0.77716574  0.15100509    -0.20100
C3274       C  0.86970059  0.77030869  0.16490078     0.20200
C3275       C  0.89368816  0.77014154  0.15382441    -0.33100
C3276       C  0.91515581  0.76246470  0.16740867     0.00900
C3277       C  0.91210206  0.75563468  0.19280902    -0.24400
C3278       C  0.81561619  0.75314039  0.23685435    -0.29000
C3279       C  0.79421420  0.76033186  0.22314911     0.06600
C3280       C  0.79728717  0.76858121  0.19820884    -0.27700
H3281       H  0.85922332  0.74201777  0.25959057     0.11300
H3282       H  0.90100781  0.74329810  0.24060120     0.12400
H3283       H  0.80842102  0.78201535  0.15072103     0.11500
H3284       H  0.85015102  0.78273867  0.13153873     0.10700
H3285       H  0.89548704  0.77537425  0.13425859     0.16100
H3286       H  0.92826704  0.74970309  0.20357077     0.12000
H3287       H  0.81339300  0.74625458  0.25585545     0.14900
H3288       H  0.78102914  0.77423912  0.18747369     0.14700
C3289       C  0.17337566  0.71601659  0.16492063    -0.18200
C3290       C  0.14964317  0.71499040  0.15363896    -0.20400
C3291       C  0.12863007  0.72559977  0.16552214     0.20300
C3292       C  0.13154354  0.73683039  0.18931287    -0.03300
C3293       C  0.15553884  0.73787045  0.20072353    -0.06400
C3294       C  0.17665133  0.72766487  0.18835438     0.20600
C3295       C  0.15843985  0.74953504  0.22431123     0.18700
C3296       C  0.13738940  0.75970228  0.23642737    -0.17800
C3297       C  0.11373201  0.75871918  0.22513997    -0.20100
C3298       C  0.11059746  0.74752999  0.20149182     0.20200
C3299       C  0.08704402  0.74749629  0.18958000    -0.33100
C3300       C  0.08403542  0.73715573  0.16542002     0.00900
C3301       C  0.10495377  0.72579081  0.15376755    -0.24400
C3302       C  0.20060308  0.72960700  0.19949449    -0.29000
C3303       C  0.20358683  0.74151717  0.22291178     0.06600
C3304       C  0.18234850  0.75116189  0.23523440    -0.27700
H3305       H  0.18924694  0.70793885  0.15514937     0.11300
H3306       H  0.14779612  0.70618520  0.13540374     0.12400
H3307       H  0.13926497  0.76868822  0.25457091     0.11500
H3308       H  0.09790376  0.76701091  0.23480883     0.10700
H3309       H  0.07121918  0.75629186  0.19881857     0.16100
H3310       H  0.10300453  0.71771449  0.13520044     0.12000
H3311       H  0.21689261  0.72206585  0.18997582     0.14900
H3312       H  0.18459163  0.76031908  0.25326953     0.14700
C3313       C  0.15767478  0.77136367  0.05445754    -0.18200
C3314       C  0.13653542  0.76060274  0.06547121    -0.20400
C3315       C  0.11281454  0.77138498  0.06192310     0.20300
C3316       C  0.11010509  0.79267801  0.04644000    -0.03300
C3317       C  0.13141775  0.80357925  0.03543761    -0.06400
C3318       C  0.15539513  0.79309845  0.03981268     0.20600
C3319       C  0.12887764  0.82571430  0.02116697     0.18700
C3320       C  0.10507878  0.83612307  0.01705518    -0.17800
C3321       C  0.08391802  0.82526427  0.02792595    -0.20100
C3322       C  0.08629168  0.80386320  0.04305100     0.20200
C3323       C  0.06555664  0.79420583  0.05591162    -0.33100
C3324       C  0.06858820  0.77378619  0.07213143     0.00900
C3325       C  0.09195570  0.76205948  0.07463830    -0.24400
C3326       C  0.17671480  0.80530115  0.03056738    -0.29000
C3327       C  0.17413914  0.82799420  0.01762679     0.06600
C3328       C  0.15031162  0.83777669  0.01238448    -0.27700
H3329       H  0.17588853  0.76310555  0.05798557     0.11300
H3330       H  0.13882070  0.74422920  0.07731211     0.12400
H3331       H  0.10292357  0.85307650  0.00602464     0.11500
H3332       H  0.06580609  0.83401946  0.02511128     0.10700
H3333       H  0.04746121  0.80329244  0.05437663     0.16100
H3334       H  0.09408828  0.74644257  0.08752799     0.12000
H3335       H  0.19524758  0.79808449  0.03474111     0.14900
H3336       H  0.14858430  0.85540321  0.00232442     0.14700
C3337       C  0.40567067  0.80078799  0.98074778    -0.18200
C3338       C  0.38418177  0.81147692  0.99130712    -0.20400
C3339       C  0.36097464  0.80926981  0.97917665     0.20300
C3340       C  0.35910495  0.79545535  0.95667780    -0.03300
C3341       C  0.38070713  0.78469269  0.94608053    -0.06400
C3342       C  0.40423271  0.78773150  0.95793030     0.20600
C3343       C  0.37894456  0.77201285  0.92294686     0.18700
C3344       C  0.35570997  0.76943111  0.91098245    -0.17800
C3345       C  0.33430256  0.78016879  0.92146532    -0.20100
C3346       C  0.33587696  0.79353147  0.94405041     0.20200
C3347       C  0.31495985  0.80615144  0.95353641    -0.33100
C3348       C  0.31718061  0.82073675  0.97518108     0.00900
C3349       C  0.33986191  0.82177764  0.98834868    -0.24400
C3350       C  0.42596790  0.77882827  0.94602215    -0.29000
C3351       C  0.42413032  0.76740862  0.92242745     0.06600
C3352       C  0.40064935  0.76331386  0.91143182    -0.27700
H3353       H  0.42350226  0.80330608  0.99007307     0.11300
H3354       H  0.38582933  0.82206888  0.00859605     0.12400
H3355       H  0.35423476  0.75972089  0.89317663     0.11500
H3356       H  0.31663456  0.77859270  0.91157314     0.10700
H3357       H  0.29737557  0.80577751  0.94340983     0.16100
H3358       H  0.34134554  0.83347281  0.00495220     0.12000
H3359       H  0.44423163  0.78218826  0.95420133     0.14900
H3360       H  0.39945111  0.75444436  0.89315908     0.14700
C3361       C  0.34163562  0.91717325  0.13447889    -0.18200
C3362       C  0.33288287  0.90928147  0.11125253    -0.20400
C3363       C  0.31149087  0.92038416  0.10089154     0.20300
C3364       C  0.29859228  0.93950495  0.11386328    -0.03300
C3365       C  0.30779637  0.94790883  0.13701640    -0.06400
C3366       C  0.32940549  0.93663487  0.14722365     0.20600
C3367       C  0.29576933  0.96786628  0.14968252     0.18700
C3368       C  0.27390542  0.97838863  0.13950326    -0.17800
C3369       C  0.26420182  0.96937736  0.11681428    -0.20100
C3370       C  0.27653890  0.95010131  0.10373028     0.20200
C3371       C  0.26686073  0.94049642  0.08120739    -0.33100
C3372       C  0.27936352  0.92078761  0.06896928     0.00900
C3373       C  0.30224781  0.91185038  0.07820114    -0.24400
C3374       C  0.33930895  0.94587311  0.16936970    -0.29000
C3375       C  0.32899607  0.96725966  0.18071838     0.06600
C3376       C  0.30658687  0.97760397  0.17160442    -0.27700
H3377       H  0.35828766  0.90846895  0.14220523     0.11300
H3378       H  0.34270472  0.89436898  0.10148640     0.12400
H3379       H  0.26439317  0.99364752  0.14901845     0.11500
H3380       H  0.24718999  0.97761724  0.10939953     0.10700
H3381       H  0.24904559  0.94719184  0.07411424     0.16100
H3382       H  0.31198579  0.89674893  0.06858537     0.12000
H3383       H  0.35627139  0.93746053  0.17680181     0.14900
H3384       H  0.29853285  0.99401292  0.18056216     0.14700
C3385       C  0.23383435  0.95566495  0.84396495    -0.18200
C3386       C  0.24519740  0.94555826  0.86532344    -0.20400
C3387       C  0.23267643  0.94582411  0.88846421     0.20300
C3388       C  0.20906356  0.95757031  0.89049722    -0.03300
C3389       C  0.19751722  0.96751078  0.86894780    -0.06400
C3390       C  0.20972336  0.96600467  0.84542393     0.20600
C3391       C  0.17311734  0.97748644  0.87067265     0.18700
C3392       C  0.16112061  0.97900384  0.89405672    -0.17800
C3393       C  0.17262664  0.96923602  0.91546335    -0.20100
C3394       C  0.19622743  0.95780793  0.91369654     0.20200
C3395       C  0.20641861  0.94503662  0.93422227    -0.33100
C3396       C  0.22886078  0.93173428  0.93158423     0.00900
C3397       C  0.24247201  0.93299214  0.90915231    -0.24400
C3398       C  0.19701946  0.97351059  0.82363853    -0.29000
C3399       C  0.17214363  0.98162706  0.82525663     0.06600
C3400       C  0.16060054  0.98442578  0.84877855    -0.27700
H3401       H  0.24349553  0.95449869  0.82612610     0.11300
H3402       H  0.26339857  0.93672053  0.86355421     0.12400
H3403       H  0.14246463  0.98688455  0.89561476     0.11500
H3404       H  0.16263722  0.96966623  0.93316464     0.10700
H3405       H  0.19615490  0.94409444  0.95166142     0.16100
H3406       H  0.25976414  0.92243518  0.90729655     0.12000
H3407       H  0.20581606  0.97155107  0.80540445     0.14900
H3408       H  0.14147422  0.99122098  0.84990665     0.14700
C3409       C  0.24460363  0.76103206  0.86252657    -0.18200
C3410       C  0.24512629  0.77275655  0.88608163    -0.20400
C3411       C  0.25314419  0.79772806  0.88850917     0.20300
C3412       C  0.26109400  0.81085391  0.86691710    -0.03300
C3413       C  0.26063009  0.79898103  0.84308054    -0.06400
C3414       C  0.25215256  0.77403031  0.84089278     0.20600
C3415       C  0.26829508  0.81220038  0.82142384     0.18700
C3416       C  0.27636204  0.83714764  0.82385481    -0.17800
C3417       C  0.27675411  0.84890494  0.84740736    -0.20100
C3418       C  0.26913409  0.83595600  0.86906060     0.20200
C3419       C  0.26900287  0.84782580  0.89269703    -0.33100
C3420       C  0.26063984  0.83510621  0.91436094     0.00900
C3421       C  0.25291506  0.80991920  0.91201624    -0.24400
C3422       C  0.25095502  0.76265190  0.81709351    -0.29000
C3423       C  0.25849407  0.77565620  0.79538021     0.06600
C3424       C  0.26743306  0.80036823  0.79774395    -0.27700
H3425       H  0.23811454  0.74184840  0.86120345     0.11300
H3426       H  0.23899885  0.76231547  0.90241802     0.12400
H3427       H  0.28220784  0.84766178  0.80748555     0.11500
H3428       H  0.28289458  0.86823335  0.84866153     0.10700
H3429       H  0.27482687  0.86725263  0.89408003     0.16100
H3430       H  0.24640186  0.79987552  0.92845422     0.12000
H3431       H  0.24373750  0.74375190  0.81532390     0.14900
H3432       H  0.27340605  0.81043862  0.78115291     0.14700
C3433       C  0.27056416  0.76924660  0.13850513    -0.18200
C3434       C  0.26874993  0.77957372  0.11438117    -0.20400
C3435       C  0.25177741  0.79909004  0.10933053     0.20300
C3436       C  0.23636286  0.80815553  0.12890008    -0.03300
C3437       C  0.23803249  0.79752298  0.15332013    -0.06400
C3438       C  0.25533110  0.77806990  0.15811455     0.20600
C3439       C  0.22259262  0.80648793  0.17294289     0.18700
C3440       C  0.20572867  0.82613441  0.16788795    -0.17800
C3441       C  0.20431732  0.83686462  0.14383694    -0.20100
C3442       C  0.21958715  0.82807481  0.12418472     0.20200
C3443       C  0.21882292  0.83921343  0.10012661    -0.33100
C3444       C  0.23442865  0.83056632  0.08048481     0.00900
C3445       C  0.25048122  0.81008593  0.08526136    -0.24400
C3446       C  0.25719475  0.76781682  0.18240121    -0.29000
C3447       C  0.24182487  0.77641231  0.20208615     0.06600
C3448       C  0.22442862  0.79574398  0.19718859    -0.27700
H3449       H  0.28396365  0.75432426  0.14183465     0.11300
H3450       H  0.28083551  0.77241765  0.09968997     0.12400
H3451       H  0.19372719  0.83336069  0.18261303     0.11500
H3452       H  0.19130848  0.85215865  0.14063731     0.10700
H3453       H  0.20645150  0.85502583  0.09684162     0.16100
H3454       H  0.26286493  0.80344843  0.07056496     0.12000
H3455       H  0.27059499  0.75295238  0.18606986     0.14900
H3456       H  0.21257329  0.80249923  0.21225966     0.14700
C3457       C  0.42520742  0.90660608  0.02659163    -0.18200
C3458       C  0.40143794  0.89533173  0.02699634    -0.20400
C3459       C  0.37980465  0.90924463  0.02112764     0.20300
C3460       C  0.38226025  0.93489215  0.01506495    -0.03300
C3461       C  0.40630736  0.94632848  0.01475310    -0.06400
C3462       C  0.42794949  0.93210229  0.02037969     0.20600
C3463       C  0.40867958  0.97192515  0.00845556     0.18700
C3464       C  0.38709906  0.98588392  0.00271581    -0.17800
C3465       C  0.36342566  0.97458103  0.00289770    -0.20100
C3466       C  0.36074718  0.94905708  0.00889874     0.20200
C3467       C  0.33702298  0.93741918  0.00832564    -0.33100
C3468       C  0.33427751  0.91167718  0.01388441     0.00900
C3469       C  0.35589793  0.89787386  0.02068198    -0.24400
C3470       C  0.45185550  0.94354185  0.01935442    -0.29000
C3471       C  0.45437446  0.96907077  0.01269629     0.06600
C3472       C  0.43255660  0.98306178  0.00758392    -0.27700
H3473       H  0.44150100  0.89529262  0.03096987     0.11300
H3474       H  0.40001215  0.87559275  0.03166295     0.12400
H3475       H  0.38854440  0.00556725  0.99783555     0.11500
H3476       H  0.34718300  0.98580909  0.99812949     0.10700
H3477       H  0.32072122  0.94835199  0.00306723     0.16100
H3478       H  0.35426513  0.87804707  0.02490637     0.12000
H3479       H  0.46845498  0.93260052  0.02350057     0.14900
H3480       H  0.43429346  0.00264318  0.00233857     0.14700
C3481       C  0.06508023  0.83664593  0.72277766    -0.18200
C3482       C  0.07647478  0.85762918  0.73357393    -0.20400
C3483       C  0.07007439  0.88190320  0.72556020     0.20300
C3484       C  0.05173079  0.88522265  0.70682516    -0.03300
C3485       C  0.04042326  0.86407857  0.69579652    -0.06400
C3486       C  0.04723790  0.83963813  0.70371616     0.20600
C3487       C  0.02306526  0.86737223  0.67614338     0.18700
C3488       C  0.01663708  0.89163890  0.66814231    -0.17800
C3489       C  0.02768664  0.91262802  0.67924952    -0.20100
C3490       C  0.04540489  0.90962820  0.69841699     0.20200
C3491       C  0.05765702  0.93049925  0.70863398    -0.33100
C3492       C  0.07640179  0.92704086  0.72661764     0.00900
C3493       C  0.08238449  0.90289205  0.73523554    -0.24400
C3494       C  0.03692511  0.81867445  0.69162866    -0.29000
C3495       C  0.02047728  0.82207849  0.67148145     0.06600
C3496       C  0.01328127  0.84630353  0.66408471    -0.27700
H3497       H  0.07061357  0.81806511  0.72895299     0.11300
H3498       H  0.09059100  0.85486598  0.74791243     0.12400
H3499       H  0.00337410  0.89436186  0.65299600     0.11500
H3500       H  0.02276005  0.93118072  0.67250285     0.10700
H3501       H  0.05358519  0.94921483  0.70174493     0.16100
H3502       H  0.09724079  0.90046379  0.74890397     0.12000
H3503       H  0.04277664  0.79987672  0.69682199     0.14900
H3504       H  0.00077727  0.84868608  0.64822347     0.14700
C3505       C  0.98426756  0.60525261  0.66615124    -0.18200
C3506       C  0.97395298  0.58420505  0.67781575    -0.20400
C3507       C  0.95833636  0.58706960  0.69876545     0.20300
C3508       C  0.95378299  0.61132239  0.70865237    -0.03300
C3509       C  0.96430508  0.63251941  0.69699677    -0.06400
C3510       C  0.97917594  0.62942493  0.67535213     0.20600
C3511       C  0.95893295  0.65686251  0.70624490     0.18700
C3512       C  0.94357105  0.65967532  0.72739642    -0.17800
C3513       C  0.93293893  0.63864860  0.73883419    -0.20100
C3514       C  0.93763926  0.61450789  0.72935928     0.20200
C3515       C  0.92538746  0.59362615  0.73930537    -0.33100
C3516       C  0.92908757  0.56977175  0.72880488     0.00900
C3517       C  0.94604995  0.56632009  0.70912228    -0.24400
C3518       C  0.98770938  0.65062689  0.66261060    -0.29000
C3519       C  0.98175433  0.67478501  0.67130767     0.06600
C3520       C  0.96803092  0.67795103  0.69344592    -0.27700
H3521       H  0.99572630  0.60267551  0.64956002     0.11300
H3522       H  0.97758322  0.56575768  0.67001286     0.12400
H3523       H  0.93923002  0.67817893  0.73467361     0.11500
H3524       H  0.92054314  0.64130991  0.75471752     0.10700
H3525       H  0.91188409  0.59606047  0.75432608     0.16100
H3526       H  0.94844002  0.54783689  0.70093622     0.12000
H3527       H  0.99828955  0.64841959  0.64536422     0.14900
H3528       H  0.96321938  0.69670800  0.69976787     0.14700
C3529       C  0.16402990  0.72731693  0.56320256    -0.18200
C3530       C  0.14263682  0.73807640  0.57383792    -0.20400
C3531       C  0.11874105  0.73013970  0.56636914     0.20300
C3532       C  0.11622155  0.71209783  0.54716673    -0.03300
C3533       C  0.13777923  0.70108451  0.53662479    -0.06400
C3534       C  0.16180928  0.70836026  0.54508438     0.20600
C3535       C  0.13524442  0.68171626  0.51876116     0.18700
C3536       C  0.11136809  0.67454550  0.51050740    -0.17800
C3537       C  0.08997642  0.68562757  0.52082196    -0.20100
C3538       C  0.09217923  0.70394300  0.53960451     0.20200
C3539       C  0.07088942  0.71317537  0.55200096    -0.33100
C3540       C  0.07361453  0.72988241  0.57209788     0.00900
C3541       C  0.09736884  0.73883624  0.57875839    -0.24400
C3542       C  0.18303770  0.69550872  0.53637602    -0.29000
C3543       C  0.18023008  0.67522807  0.51993547     0.06600
C3544       C  0.15655288  0.66887465  0.51058862    -0.27700
H3545       H  0.18228788  0.73316247  0.56981291     0.11300
H3546       H  0.14477810  0.75203922  0.58847771     0.12400
H3547       H  0.10922279  0.65978386  0.49667071     0.11500
H3548       H  0.07171409  0.67923353  0.51476183     0.10700
H3549       H  0.05246191  0.70618011  0.54718684     0.16100
H3550       H  0.09923126  0.75173704  0.59440231     0.12000
H3551       H  0.20144726  0.70014530  0.54355839     0.14900
H3552       H  0.15467808  0.65316247  0.49777635     0.14700
C3553       C  0.83514460  0.77649563  0.56721479    -0.18200
C3554       C  0.85617213  0.76551545  0.57835538    -0.20400
C3555       C  0.88027009  0.77091870  0.56939482     0.20300
C3556       C  0.88326160  0.78667035  0.54835821    -0.03300
C3557       C  0.86206066  0.79791939  0.53725801    -0.06400
C3558       C  0.83790986  0.79313819  0.54703190     0.20600
C3559       C  0.86515888  0.81501725  0.51730690     0.18700
C3560       C  0.88920609  0.81978116  0.50784439    -0.17800
C3561       C  0.91020884  0.80841469  0.51868343    -0.20100
C3562       C  0.90751004  0.79225080  0.53926992     0.20200
C3563       C  0.92861342  0.78263515  0.55176235    -0.33100
C3564       C  0.92557775  0.76820383  0.57351520     0.00900
C3565       C  0.90147822  0.76190217  0.58188514    -0.24400
C3566       C  0.81717106  0.80614593  0.53737269    -0.29000
C3567       C  0.82050367  0.82409728  0.51849720     0.06600
C3568       C  0.84431106  0.82805587  0.50811056    -0.27700
H3569       H  0.81678366  0.77260122  0.57490248     0.11300
H3570       H  0.85363592  0.75333470  0.59443117     0.12400
H3571       H  0.89182975  0.83282323  0.49247626     0.11500
H3572       H  0.92862429  0.81288773  0.51146826     0.10700
H3573       H  0.94727972  0.78765190  0.54558638     0.16100
H3574       H  0.89930837  0.75071616  0.59875095     0.12000
H3575       H  0.79877737  0.80348257  0.54553037     0.14900
H3576       H  0.84672358  0.84220928  0.49368548     0.14700
C3577       C  0.13555380  0.74491576  0.73721986    -0.18200
C3578       C  0.11182088  0.74631234  0.72603957    -0.20400
C3579       C  0.10890175  0.75602404  0.70170925     0.20300
C3580       C  0.13019676  0.76499277  0.68882843    -0.03300
C3581       C  0.15427373  0.76354500  0.70014289    -0.06400
C3582       C  0.15694175  0.75318012  0.72433592     0.20600
C3583       C  0.17569036  0.77197512  0.68705766     0.18700
C3584       C  0.17267684  0.78221716  0.66295350    -0.17800
C3585       C  0.14890378  0.78361663  0.65177038    -0.20100
C3586       C  0.12754409  0.77483285  0.66442399     0.20200
C3587       C  0.10377008  0.77503539  0.65281804    -0.33100
C3588       C  0.08243255  0.76520105  0.66506246     0.00900
C3589       C  0.08524020  0.75620617  0.68981344    -0.24400
C3590       C  0.18093517  0.75086163  0.73506458    -0.29000
C3591       C  0.20247935  0.75885970  0.72211887     0.06600
C3592       C  0.19967059  0.76966030  0.69814511    -0.27700
H3593       H  0.13721495  0.73703179  0.75588101     0.11300
H3594       H  0.09575616  0.73942503  0.73632412     0.12400
H3595       H  0.18878141  0.78887201  0.65257725     0.11500
H3596       H  0.14728184  0.79126851  0.63300958     0.10700
H3597       H  0.10210362  0.78204304  0.63380732     0.16100
H3598       H  0.06915622  0.74861093  0.69956683     0.12000
H3599       H  0.18297312  0.74252545  0.75350724     0.14900
H3600       H  0.21611588  0.77599725  0.68810610     0.14700
C3601       C  0.99572850  0.63555050  0.52011155    -0.18200
C3602       C  0.99425177  0.61135335  0.50984116    -0.20400
C3603       C  0.00383434  0.59054942  0.52290559     0.20300
C3604       C  0.01557890  0.59425204  0.54629888    -0.03300
C3605       C  0.01700987  0.61873756  0.55671452    -0.06400
C3606       C  0.00675364  0.63946563  0.54370865     0.20600
C3607       C  0.02811858  0.62235001  0.58041254     0.18700
C3608       C  0.03817216  0.60160117  0.59324431    -0.17800
C3609       C  0.03689201  0.57742609  0.58288793    -0.20100
C3610       C  0.02545547  0.57344959  0.55951156     0.20200
C3611       C  0.02346828  0.54908795  0.54925099    -0.33100
C3612       C  0.01137655  0.54527380  0.52612901     0.00900
C3613       C  0.00162048  0.56611254  0.51313106    -0.24400
C3614       C  0.00689421  0.66352274  0.55488043    -0.29000
C3615       C  0.01701929  0.66715443  0.57903304     0.06600
C3616       C  0.02823240  0.64645013  0.59126877    -0.27700
H3617       H  0.98784019  0.65116988  0.50975692     0.11300
H3618       H  0.98532737  0.60887443  0.49175943     0.12400
H3619       H  0.04675859  0.60401904  0.61149906     0.11500
H3620       H  0.04459197  0.56177275  0.59333329     0.10700
H3621       H  0.03109622  0.53311305  0.55926166     0.16100
H3622       H  0.99231747  0.56319614  0.49528917     0.12000
H3623       H  0.99824428  0.67917622  0.54519370     0.14900
H3624       H  0.03616942  0.64881528  0.60983143     0.14700
C3625       C  0.88673363  0.76145402  0.72265723    -0.18200
C3626       C  0.86286103  0.76336178  0.73349912    -0.20400
C3627       C  0.84206121  0.75183569  0.72224760     0.20300
C3628       C  0.84545251  0.73809528  0.69986400    -0.03300
C3629       C  0.86968607  0.73617401  0.68885987    -0.06400
C3630       C  0.89041465  0.74799275  0.70026842     0.20600
C3631       C  0.87307906  0.72277237  0.66628099     0.18700
C3632       C  0.85225614  0.71114949  0.65509677    -0.17800
C3633       C  0.82835680  0.71295368  0.66600966    -0.20100
C3634       C  0.82462771  0.72648097  0.68836340     0.20200
C3635       C  0.80054631  0.72868510  0.69935835    -0.33100
C3636       C  0.79704744  0.74239050  0.72174500     0.00900
C3637       C  0.81798483  0.75389454  0.73295811    -0.24400
C3638       C  0.91429234  0.74670117  0.68884066    -0.29000
C3639       C  0.91788426  0.73397021  0.66585840     0.06600
C3640       C  0.89703748  0.72172448  0.65499015    -0.27700
H3641       H  0.90233131  0.77071615  0.73172824     0.11300
H3642       H  0.86065442  0.77398887  0.75069962     0.12400
H3643       H  0.85441110  0.70077007  0.63773964     0.11500
H3644       H  0.81272122  0.70385898  0.65683718     0.10700
H3645       H  0.78456772  0.71978190  0.69058714     0.16100
H3646       H  0.81544122  0.76448316  0.75015349     0.12000
H3647       H  0.92990705  0.75638653  0.69743997     0.14900
H3648       H  0.89926366  0.71194369  0.63729019     0.14700
C3649       C  0.88873550  0.98514699  0.51256917    -0.18200
C3650       C  0.86482933  0.97443304  0.51145240    -0.20400
C3651       C  0.86085677  0.95184202  0.49847301     0.20300
C3652       C  0.88123677  0.94005736  0.48633155    -0.03300
C3653       C  0.90542371  0.95094679  0.48737638    -0.06400
C3654       C  0.90916998  0.97353914  0.50066702     0.20600
C3655       C  0.92587159  0.93910117  0.47535203     0.18700
C3656       C  0.92188680  0.91647438  0.46244048    -0.17800
C3657       C  0.89800228  0.90563193  0.46154233    -0.20100
C3658       C  0.87754535  0.91722842  0.47345230     0.20200
C3659       C  0.85361789  0.90615418  0.47312108    -0.33100
C3660       C  0.83318542  0.91752265  0.48556068     0.00900
C3661       C  0.83700661  0.94061256  0.49788926    -0.24400
C3662       C  0.93329329  0.98399636  0.50200748    -0.29000
C3663       C  0.95377274  0.97232977  0.49011950     0.06600
C3664       C  0.94990981  0.94996207  0.47664955    -0.27700
H3665       H  0.89126239  0.00250400  0.52285998     0.11300
H3666       H  0.84945714  0.98374319  0.52093704     0.12400
H3667       H  0.93730341  0.90704632  0.45315294     0.11500
H3668       H  0.89556038  0.88805460  0.45161174     0.10700
H3669       H  0.85105572  0.88835068  0.46361688     0.16100
H3670       H  0.82156714  0.94953494  0.50764563     0.12000
H3671       H  0.93626441  0.00122992  0.51241782     0.14900
H3672       H  0.96563366  0.94095960  0.46745119     0.14700
C3673       C  0.13146599  0.03790080  0.46985084    -0.18200
C3674       C  0.10756226  0.02721836  0.46841806    -0.20400
C3675       C  0.09007569  0.03091363  0.48776229     0.20300
C3676       C  0.09677960  0.04552003  0.50878780    -0.03300
C3677       C  0.12093197  0.05648822  0.51015506    -0.06400
C3678       C  0.13835500  0.05261337  0.49060202     0.20600
C3679       C  0.12747593  0.07164668  0.53086500     0.18700
C3680       C  0.11002259  0.07512887  0.55029620    -0.17800
C3681       C  0.08624068  0.06405397  0.54907605    -0.20100
C3682       C  0.07928942  0.04938997  0.52831234     0.20200
C3683       C  0.05518385  0.03867793  0.52665251    -0.33100
C3684       C  0.04839866  0.02398814  0.50575344     0.00900
C3685       C  0.06602624  0.02029737  0.48641109    -0.24400
C3686       C  0.16210551  0.06399586  0.49182029    -0.29000
C3687       C  0.16852427  0.07990407  0.51195027     0.06600
C3688       C  0.15108858  0.08347623  0.53149644    -0.27700
H3689       H  0.14451655  0.03481568  0.45459047     0.11300
H3690       H  0.10272771  0.01608313  0.45211009     0.12400
H3691       H  0.11470709  0.08659091  0.56641623     0.11500
H3692       H  0.07317575  0.06716330  0.56431479     0.10700
H3693       H  0.04169209  0.04179231  0.54151711     0.16100
H3694       H  0.06095628  0.00896362  0.47029290     0.12000
H3695       H  0.17517878  0.06142879  0.47646765     0.14900
H3696       H  0.15579703  0.09574505  0.54702119     0.14700
C3697       C  0.08890877  0.97259618  0.57505736    -0.18200
C3698       C  0.09999476  0.97195649  0.59893081    -0.20400
C3699       C  0.08630376  0.97881833  0.62041760     0.20300
C3700       C  0.06118262  0.98645586  0.61775878    -0.03300
C3701       C  0.04998566  0.98718654  0.59357597    -0.06400
C3702       C  0.06388867  0.98016984  0.57209186     0.20600
C3703       C  0.02500072  0.99527997  0.59089118     0.18700
C3704       C  0.01132844  0.00220662  0.61234017    -0.17800
C3705       C  0.02235367  0.00138154  0.63621633    -0.20100
C3706       C  0.04734041  0.99369745  0.63919479     0.20200
C3707       C  0.05882016  0.99359377  0.66310460    -0.33100
C3708       C  0.08403672  0.98625141  0.66598825     0.00900
C3709       C  0.09744520  0.97858626  0.64440231    -0.24400
C3710       C  0.05261769  0.98110673  0.54809023    -0.29000
C3711       C  0.02770932  0.98939218  0.54526554     0.06600
C3712       C  0.01421207  0.99662480  0.56682449    -0.27700
H3713       H  0.09998134  0.96726889  0.55886908     0.11300
H3714       H  0.11937956  0.96617998  0.60057157     0.12400
H3715       H  0.99207789  0.00839842  0.61064165     0.11500
H3716       H  0.01135937  0.00698600  0.65236691     0.10700
H3717       H  0.04824682  0.99964026  0.67938758     0.16100
H3718       H  0.11688222  0.97302156  0.64611460     0.12000
H3719       H  0.06326609  0.97582253  0.53159607     0.14900
H3720       H  0.99527917  0.00366610  0.56474360     0.14700
C3721       C  0.03184875  0.07396404  0.41094242    -0.18200
C3722       C  0.03251459  0.09785888  0.39988002    -0.20400
C3723       C  0.02338688  0.11901275  0.41279146     0.20300
C3724       C  0.01366324  0.11602851  0.43719474    -0.03300
C3725       C  0.01301345  0.09186674  0.44839721    -0.06400
C3726       C  0.02204871  0.07068069  0.43517297     0.20600
C3727       C  0.00303563  0.08890074  0.47271038     0.18700
C3728       C  0.99394288  0.11001061  0.48564154    -0.17800
C3729       C  0.99450753  0.13384513  0.47453923    -0.20100
C3730       C  0.00422133  0.13710305  0.45027406     0.20200
C3731       C  0.00414520  0.16093107  0.43870402    -0.33100
C3732       C  0.01335518  0.16409306  0.41411414     0.00900
C3733       C  0.02332072  0.14295238  0.40151861    -0.24400
C3734       C  0.02084567  0.04664728  0.44630699    -0.29000
C3735       C  0.01064234  0.04360683  0.47047752     0.06600
C3736       C  0.00201370  0.06487557  0.48356053    -0.27700
H3737       H  0.03885467  0.05800343  0.40044945     0.11300
H3738       H  0.03999237  0.09975619  0.38107906     0.12400
H3739       H  0.98619634  0.10806357  0.50432624     0.11500
H3740       H  0.98715358  0.14973808  0.48489680     0.10700
H3741       H  0.99635545  0.17689666  0.44863874     0.16100
H3742       H  0.03038929  0.14493960  0.38256528     0.12000
H3743       H  0.02768113  0.03036362  0.43620811     0.14900
H3744       H  0.99409737  0.06256400  0.50215165     0.14700
C3745       C  0.00326548  0.86110197  0.51955854    -0.18200
C3746       C  0.00487719  0.88510875  0.50891710    -0.20400
C3747       C  0.99680783  0.90636343  0.52230093     0.20300
C3748       C  0.98651385  0.90333966  0.54646219    -0.03300
C3749       C  0.98493608  0.87904500  0.55724944    -0.06400
C3750       C  0.99357929  0.85782960  0.54383323     0.20600
C3751       C  0.97517833  0.87607413  0.58162801     0.18700
C3752       C  0.96675711  0.89731179  0.59486319    -0.17800
C3753       C  0.96812732  0.92129987  0.58412056    -0.20100
C3754       C  0.97810487  0.92460012  0.55997245     0.20200
C3755       C  0.98006918  0.94873191  0.54921183    -0.33100
C3756       C  0.99108669  0.95192751  0.52543772     0.00900
C3757       C  0.99917379  0.93057984  0.51208280    -0.24400
C3758       C  0.99303480  0.83387322  0.55515100    -0.29000
C3759       C  0.98399380  0.83078873  0.57980589     0.06600
C3760       C  0.97460226  0.85205808  0.59261733    -0.27700
H3761       H  0.00992325  0.84510271  0.50889770     0.11300
H3762       H  0.01269734  0.88707543  0.49026607     0.12400
H3763       H  0.95928272  0.89539908  0.61366383     0.11500
H3764       H  0.96163442  0.93732743  0.59484144     0.10700
H3765       H  0.97311687  0.96493222  0.55932180     0.16100
H3766       H  0.00745074  0.93293734  0.49365831     0.12000
H3767       H  0.00035947  0.81778956  0.54505482     0.14900
H3768       H  0.96761763  0.85012948  0.61160904     0.14700
C3769       C  0.98782547  0.10797459  0.32097129    -0.18200
C3770       C  0.97705688  0.08698448  0.30970775    -0.20400
C3771       C  0.95857408  0.08998886  0.29131497     0.20300
C3772       C  0.95171572  0.11434681  0.28321324    -0.03300
C3773       C  0.96280719  0.13548788  0.29431869    -0.06400
C3774       C  0.98038796  0.13218228  0.31378112     0.20600
C3775       C  0.95510788  0.15989037  0.28713899     0.18700
C3776       C  0.93718965  0.16285578  0.26814842    -0.17800
C3777       C  0.92594359  0.14182671  0.25730583    -0.20100
C3778       C  0.93262077  0.11759879  0.26521948     0.20200
C3779       C  0.91954056  0.09661738  0.25666188    -0.33100
C3780       C  0.92563897  0.07265788  0.26566805     0.00900
C3781       C  0.94570713  0.06916791  0.28205783    -0.24400
C3782       C  0.98903871  0.15309864  0.32678731    -0.29000
C3783       C  0.98042651  0.17712775  0.32054808     0.06600
C3784       C  0.96428945  0.18074104  0.30021409    -0.27700
H3785       H  0.00138085  0.10528412  0.33586179     0.11300
H3786       H  0.98246885  0.06842974  0.31606737     0.12400
H3787       H  0.93117319  0.18141891  0.26239023     0.11500
H3788       H  0.91143470  0.14452104  0.24335357     0.10700
H3789       H  0.90392363  0.09893619  0.24385065     0.16100
H3790       H  0.95006513  0.05049317  0.28891631     0.12000
H3791       H  0.00150491  0.15065249  0.34267307     0.14900
H3792       H  0.95759104  0.19945931  0.29580915     0.14700
C3793       C  0.82936963  0.03077217  0.08327890    -0.18200
C3794       C  0.84079471  0.02023464  0.10431429    -0.20400
C3795       C  0.82865913  0.02075439  0.12764912     0.20300
C3796       C  0.80444251  0.03107094  0.12982077    -0.03300
C3797       C  0.79296738  0.04177280  0.10863818    -0.06400
C3798       C  0.80569782  0.04194726  0.08536860     0.20600
C3799       C  0.76940657  0.05354013  0.11104452     0.18700
C3800       C  0.75706969  0.05351732  0.13429569    -0.17800
C3801       C  0.76839764  0.04268632  0.15532088    -0.20100
C3802       C  0.79227766  0.03188730  0.15340729     0.20200
C3803       C  0.80481587  0.02315468  0.17482095    -0.33100
C3804       C  0.82942170  0.01436302  0.17271774     0.00900
C3805       C  0.84089512  0.01237304  0.14911265    -0.24400
C3806       C  0.79518423  0.05458699  0.06498399    -0.29000
C3807       C  0.77259230  0.06748656  0.06783100     0.06600
C3808       C  0.75935646  0.06639955  0.09051078    -0.27700
H3809       H  0.83935424  0.03087513  0.06557094     0.11300
H3810       H  0.85941643  0.01232361  0.10249600     0.12400
H3811       H  0.73896203  0.06247999  0.13636728     0.11500
H3812       H  0.75882488  0.04345469  0.17323051     0.10700
H3813       H  0.79617875  0.02471465  0.19317109     0.16100
H3814       H  0.85988821  0.00523979  0.14764738     0.12000
H3815       H  0.80522038  0.05562376  0.04740332     0.14900
H3816       H  0.74202266  0.07684877  0.09255357     0.14700
C3817       C  0.82862201  0.96720202  0.41470530    -0.18200
C3818       C  0.84031715  0.97739442  0.39363383    -0.20400
C3819       C  0.82850014  0.97654953  0.37013854     0.20300
C3820       C  0.80422049  0.96650279  0.36791397    -0.03300
C3821       C  0.79249564  0.95609136  0.38912687    -0.06400
C3822       C  0.80501045  0.95599386  0.41250134     0.20600
C3823       C  0.76891121  0.94449064  0.38664001     0.18700
C3824       C  0.75670205  0.94461578  0.36332358    -0.17800
C3825       C  0.76824958  0.95518297  0.34229635    -0.20100
C3826       C  0.79224229  0.96560835  0.34424798     0.20200
C3827       C  0.80503594  0.97389848  0.32280926    -0.33100
C3828       C  0.82976112  0.98226619  0.32491236     0.00900
C3829       C  0.84107221  0.98435241  0.34860721    -0.24400
C3830       C  0.79434452  0.94340821  0.43287201    -0.29000
C3831       C  0.77175099  0.93054895  0.42994183     0.06600
C3832       C  0.75868512  0.93171389  0.40715820    -0.27700
H3833       H  0.83839816  0.96730515  0.43252660     0.11300
H3834       H  0.85891866  0.98523703  0.39555399     0.12400
H3835       H  0.73853404  0.93588270  0.36119123     0.11500
H3836       H  0.75877335  0.95443249  0.32433908     0.10700
H3837       H  0.79644914  0.97235788  0.30443997     0.16100
H3838       H  0.86010654  0.99124182  0.35013286     0.12000
H3839       H  0.80423162  0.94246518  0.45054132     0.14900
H3840       H  0.74128285  0.92147836  0.40505871     0.14700
C3841       C  0.99513281  0.88456297  0.19110071    -0.18200
C3842       C  0.98471495  0.90582813  0.20232916    -0.20400
C3843       C  0.96207219  0.90405238  0.21546523     0.20300
C3844       C  0.95060189  0.88034355  0.21872176    -0.03300
C3845       C  0.96110930  0.85894948  0.20750299    -0.06400
C3846       C  0.98305452  0.86129942  0.19298109     0.20600
C3847       C  0.94865142  0.83559783  0.20923921     0.18700
C3848       C  0.92669897  0.83354137  0.22346900    -0.17800
C3849       C  0.91622774  0.85482151  0.23458814    -0.20100
C3850       C  0.92761732  0.87832056  0.23153626     0.20200
C3851       C  0.91547488  0.90007526  0.23935317    -0.33100
C3852       C  0.92589064  0.92366412  0.23433117     0.00900
C3853       C  0.94970479  0.92571078  0.22372167    -0.24400
C3854       C  0.99154953  0.84072639  0.17923397    -0.29000
C3855       C  0.97823543  0.81816767  0.17973688     0.06600
C3856       C  0.95747275  0.81518705  0.19533905    -0.27700
H3857       H  0.01207781  0.88649982  0.18010420     0.11300
H3858       H  0.99377366  0.92382850  0.19980244     0.12400
H3859       H  0.91708013  0.81572313  0.22508653     0.11500
H3860       H  0.89865900  0.85310233  0.24460694     0.10700
H3861       H  0.89714183  0.89879877  0.24798842     0.16100
H3862       H  0.95754790  0.94410861  0.22005799     0.12000
H3863       H  0.00763395  0.84262569  0.16695278     0.14900
H3864       H  0.94748359  0.79753191  0.19553448     0.14700
C3865       C  0.76234617  0.86576110  0.24138357    -0.18200
C3866       C  0.77399419  0.88926073  0.24296358    -0.20400
C3867       C  0.79776330  0.89167957  0.25393627     0.20300
C3868       C  0.80980201  0.87012682  0.26358320    -0.03300
C3869       C  0.79794528  0.84634858  0.26211779    -0.06400
C3870       C  0.77416497  0.84417532  0.25083550     0.20600
C3871       C  0.80993809  0.82476695  0.27179919     0.18700
C3872       C  0.83380861  0.82715451  0.28256016    -0.17800
C3873       C  0.84563889  0.85061949  0.28377220    -0.20100
C3874       C  0.83377999  0.87226694  0.27442977     0.20200
C3875       C  0.84565102  0.89588412  0.27532729    -0.33100
C3876       C  0.83401672  0.91752240  0.26530957     0.00900
C3877       C  0.80985894  0.91515903  0.25493668    -0.24400
C3878       C  0.76272531  0.82046352  0.24900232    -0.29000
C3879       C  0.77445737  0.79884609  0.25866685     0.06600
C3880       C  0.79793646  0.80122753  0.27039638    -0.27700
H3881       H  0.74407431  0.86446484  0.23267997     0.11300
H3882       H  0.76445628  0.90555342  0.23540632     0.12400
H3883       H  0.84342297  0.81081847  0.28992543     0.11500
H3884       H  0.86413235  0.85182384  0.29200731     0.10700
H3885       H  0.86428587  0.89724776  0.28322036     0.16100
H3886       H  0.80070073  0.93149027  0.24698357     0.12000
H3887       H  0.74464008  0.81872038  0.23995416     0.14900
H3888       H  0.80688500  0.78479666  0.27831059     0.14700
C3889       C  0.76420667  0.13178895  0.26346071    -0.18200
C3890       C  0.77527979  0.10806244  0.26083733    -0.20400
C3891       C  0.79711551  0.10494358  0.24649703     0.20300
C3892       C  0.80760510  0.12595446  0.23428930    -0.03300
C3893       C  0.79628992  0.14997144  0.23680111    -0.06400
C3894       C  0.77464288  0.15288706  0.25168068     0.20600
C3895       C  0.80685848  0.17109391  0.22478695     0.18700
C3896       C  0.82859025  0.16788418  0.21028292    -0.17800
C3897       C  0.83991750  0.14417836  0.20800702    -0.20100
C3898       C  0.82969399  0.12309473  0.22006549     0.20200
C3899       C  0.84158946  0.09943612  0.21883037    -0.33100
C3900       C  0.83174060  0.07847463  0.23167743     0.00900
C3901       C  0.80905971  0.08138167  0.24490450    -0.24400
C3902       C  0.76389720  0.17683727  0.25467327    -0.29000
C3903       C  0.77409375  0.19797362  0.24261459     0.06600
C3904       C  0.79562514  0.19498555  0.22767125    -0.27700
H3905       H  0.74752907  0.13366447  0.27487561     0.11300
H3906       H  0.76694288  0.09218390  0.27036201     0.12400
H3907       H  0.83701205  0.18379129  0.20088859     0.11500
H3908       H  0.85686817  0.14239156  0.19698888     0.10700
H3909       H  0.85903910  0.09759206  0.20861710     0.16100
H3910       H  0.80126315  0.06556041  0.25498543     0.12000
H3911       H  0.74739378  0.17912312  0.26629851     0.14900
H3912       H  0.80363466  0.21124179  0.21849804     0.14700
C3913       C  0.98831323  0.98778365  0.38493574    -0.18200
C3914       C  0.97775380  0.98988949  0.36094824    -0.20400
C3915       C  0.95479025  0.00227903  0.35745536     0.20300
C3916       C  0.94246407  0.01278455  0.37845157    -0.03300
C3917       C  0.95314956  0.01065435  0.40275164    -0.06400
C3918       C  0.97614957  0.99802668  0.40596112     0.20600
C3919       C  0.94072966  0.02096097  0.42382214     0.18700
C3920       C  0.91772163  0.03326558  0.42031713    -0.17800
C3921       C  0.90710974  0.03527174  0.39631233    -0.20100
C3922       C  0.91929825  0.02508400  0.37524628     0.20200
C3923       C  0.90842514  0.02644577  0.35118502    -0.33100
C3924       C  0.92020940  0.01544884  0.33012085     0.00900
C3925       C  0.94367732  0.00376208  0.33348015    -0.24400
C3926       C  0.98655505  0.99579225  0.43010844    -0.29000
C3927       C  0.97448911  0.00617659  0.45119372     0.06600
C3928       C  0.95150773  0.01871778  0.44793781    -0.27700
H3929       H  0.00600013  0.97803160  0.38705361     0.11300
H3930       H  0.98749538  0.98164311  0.34511990     0.12400
H3931       H  0.90784363  0.04126068  0.43618723     0.11500
H3932       H  0.88924237  0.04469737  0.39424881     0.10700
H3933       H  0.89028506  0.03533296  0.34905713     0.16100
H3934       H  0.95291635  0.99503382  0.31759747     0.12000
H3935       H  0.00420229  0.98601922  0.43259563     0.14900
H3936       H  0.94213134  0.02670603  0.46412091     0.14700
C3937       C  0.11405829  0.31027610  0.99519883    -0.18200
C3938       C  0.09282017  0.29974481  0.98400889    -0.20400
C3939       C  0.09453599  0.28808101  0.96044336     0.20300
C3940       C  0.11814909  0.28608647  0.94855908    -0.03300
C3941       C  0.13956482  0.29643979  0.95993816    -0.06400
C3942       C  0.13736533  0.30916634  0.98306237     0.20600
C3943       C  0.16290975  0.29530055  0.94746345     0.18700
C3944       C  0.16485012  0.28303066  0.92428072    -0.17800
C3945       C  0.14361115  0.27291767  0.91293743    -0.20100
C3946       C  0.12019253  0.27484673  0.92469306     0.20200
C3947       C  0.09863126  0.26669330  0.91246443    -0.33100
C3948       C  0.07503014  0.26941218  0.92371307     0.00900
C3949       C  0.07300904  0.27937072  0.94800362    -0.24400
C3950       C  0.15817893  0.32184290  0.99277487    -0.29000
C3951       C  0.18093367  0.32181053  0.97960966     0.06600
C3952       C  0.18354542  0.30780083  0.95759802    -0.27700
H3953       H  0.11211871  0.31990688  0.01301194     0.11300
H3954       H  0.07492514  0.30138768  0.99343499     0.12400
H3955       H  0.18262986  0.28200827  0.91453032     0.11500
H3956       H  0.14537911  0.26417657  0.89464907     0.10700
H3957       H  0.10008940  0.25876832  0.89375477     0.16100
H3958       H  0.05470833  0.28154806  0.95652687     0.12000
H3959       H  0.15632456  0.33300666  0.00970931     0.14900
H3960       H  0.20116435  0.30795241  0.94758130     0.14700
C3961       C  0.08472138  0.14330809  0.77221226    -0.18200
C3962       C  0.07332007  0.16427448  0.78305041    -0.20400
C3963       C  0.05076518  0.16169895  0.79621554     0.20300
C3964       C  0.03881208  0.13807143  0.79730575    -0.03300
C3965       C  0.05017449  0.11696681  0.78612115    -0.06400
C3966       C  0.07360284  0.11955906  0.77425623     0.20600
C3967       C  0.03885310  0.09305798  0.78810770     0.18700
C3968       C  0.01568529  0.09080205  0.80029282    -0.17800
C3969       C  0.00454527  0.11171872  0.81167814    -0.20100
C3970       C  0.01630982  0.13524156  0.81086317     0.20200
C3971       C  0.00685026  0.15563717  0.82455284    -0.33100
C3972       C  0.01954532  0.17865893  0.82453410     0.00900
C3973       C  0.04075749  0.18196519  0.80956975    -0.24400
C3974       C  0.08617438  0.09817177  0.76587033    -0.29000
C3975       C  0.07566931  0.07424492  0.76898718     0.06600
C3976       C  0.05159844  0.07173484  0.77913414    -0.27700
H3977       H  0.10263014  0.14551928  0.76293038     0.11300
H3978       H  0.08262835  0.18230458  0.78198584     0.12400
H3979       H  0.00664405  0.07268568  0.80183998     0.11500
H3980       H  0.98713356  0.10932883  0.82181050     0.10700
H3981       H  0.99038076  0.15331665  0.83621760     0.16100
H3982       H  0.05021902  0.19987925  0.80943103     0.12000
H3983       H  0.10469181  0.09999956  0.75773774     0.14900
H3984       H  0.04361715  0.05319574  0.78151736     0.14700
C3985       C  0.92928623  0.36002759  0.76169853    -0.18200
C3986       C  0.93966089  0.33867690  0.77287597    -0.20400
C3987       C  0.95510579  0.34098068  0.79401447     0.20300
C3988       C  0.96078280  0.36513244  0.80352702    -0.03300
C3989       C  0.95048101  0.38663689  0.79217462    -0.06400
C3990       C  0.93430248  0.38397894  0.77144481     0.20600
C3991       C  0.95537369  0.41069257  0.80233062     0.18700
C3992       C  0.97106481  0.41304550  0.82326936    -0.17800
C3993       C  0.98120950  0.39170322  0.83459505    -0.20100
C3994       C  0.97581840  0.36775014  0.82509693     0.20200
C3995       C  0.98427900  0.34631264  0.83746672    -0.33100
C3996       C  0.97801035  0.32236914  0.82856026     0.00900
C3997       C  0.96406482  0.31960475  0.80651669    -0.24400
C3998       C  0.92242727  0.40521811  0.76166855    -0.29000
C3999       C  0.92655994  0.42890927  0.77234457     0.06600
C4000       C  0.94345468  0.43179560  0.79215657    -0.27700
H4001       H  0.91687303  0.35777362  0.74578314     0.11300
H4002       H  0.93509594  0.32033575  0.76538152     0.12400
H4003       H  0.97494757  0.43133335  0.83127899     0.11500
H4004       H  0.99278758  0.39388595  0.85114675     0.10700
H4005       H  0.99510672  0.34818058  0.85459268     0.16100
H4006       H  0.95908864  0.30098243  0.79999928     0.12000
H4007       H  0.90898017  0.40322908  0.74654778     0.14900
H4008       H  0.94617894  0.45015821  0.80048171     0.14700
C4009       C  0.88798480  0.18581146  0.99814145    -0.18200
C4010       C  0.90928810  0.19651735  0.98722627    -0.20400
C4011       C  0.90730745  0.21039124  0.96492813     0.20300
C4012       C  0.88337062  0.21473549  0.95438321    -0.03300
C4013       C  0.86191103  0.20409566  0.96544969    -0.06400
C4014       C  0.86435880  0.18891627  0.98699092     0.20600
C4015       C  0.83824115  0.20727919  0.95396794     0.18700
C4016       C  0.83603763  0.22211038  0.93237356    -0.17800
C4017       C  0.85728745  0.23258379  0.92137830    -0.20100
C4018       C  0.88100891  0.22835979  0.93184486     0.20200
C4019       C  0.90250044  0.23618546  0.91927935    -0.33100
C4020       C  0.92634468  0.23060970  0.92878284     0.00900
C4021       C  0.92881013  0.21869032  0.95212598    -0.24400
C4022       C  0.84341328  0.17588736  0.99596904    -0.29000
C4023       C  0.82027090  0.17795422  0.98363407     0.06600
C4024       C  0.81749686  0.19428749  0.96330666    -0.27700
H4025       H  0.89011353  0.17437151  0.01481173     0.11300
H4026       H  0.92741661  0.19313784  0.99569263     0.12400
H4027       H  0.81801337  0.22480022  0.92343652     0.11500
H4028       H  0.85527905  0.24320112  0.90415055     0.10700
H4029       H  0.90074655  0.24564428  0.90135356     0.16100
H4030       H  0.94729721  0.21443136  0.95936653     0.12000
H4031       H  0.84538177  0.16300700  0.01160448     0.14900
H4032       H  0.79959446  0.19565314  0.95385252     0.14700
C4033       C  0.17130490  0.21403490  0.83388034    -0.18200
C4034       C  0.14744537  0.21294244  0.84489143    -0.20400
C4035       C  0.12642333  0.22300362  0.83256612     0.20300
C4036       C  0.12946049  0.23375101  0.80861088    -0.03300
C4037       C  0.15365379  0.23490407  0.79746811    -0.06400
C4038       C  0.17475540  0.22524693  0.81028126     0.20600
C4039       C  0.15678536  0.24626719  0.77379487     0.18700
C4040       C  0.13565981  0.25565622  0.76115209    -0.17800
C4041       C  0.11180170  0.25451220  0.77214908    -0.20100
C4042       C  0.10846856  0.24395529  0.79606972     0.20200
C4043       C  0.08473906  0.24412659  0.80792747    -0.33100
C4044       C  0.08160319  0.23422817  0.83229167     0.00900
C4045       C  0.10263426  0.22316272  0.84411123    -0.24400
C4046       C  0.19889250  0.22735616  0.79949250    -0.29000
C4047       C  0.20224613  0.23918473  0.77608593     0.06600
C4048       C  0.18098231  0.24847230  0.76340067    -0.27700
H4049       H  0.18715168  0.20641082  0.84402936     0.11300
H4050       H  0.14550693  0.20454142  0.86329510     0.12400
H4051       H  0.13763778  0.26426511  0.74285049     0.11500
H4052       H  0.09598497  0.26230743  0.76208056     0.10700
H4053       H  0.06889583  0.25262857  0.79847875     0.16100
H4054       H  0.10073476  0.21537881  0.86279515     0.12000
H4055       H  0.21508304  0.22011361  0.80938235     0.14900
H4056       H  0.18339288  0.25767214  0.74542623     0.14700
C4057       C  0.03890117  0.41951124  0.92170997    -0.18200
C4058       C  0.04017305  0.39560837  0.91067543    -0.20400
C4059       C  0.02643950  0.37544540  0.92059923     0.20300
C4060       C  0.01118015  0.37950642  0.94181931    -0.03300
C4061       C  0.00970027  0.40372199  0.95282669    -0.06400
C4062       C  0.02374069  0.42383078  0.94281532     0.20600
C4063       C  0.99407212  0.40780556  0.97377697     0.18700
C4064       C  0.98008691  0.38776937  0.98351474    -0.17800
C4065       C  0.98167468  0.36382905  0.97273689    -0.20100
C4066       C  0.99719483  0.35944511  0.95192266     0.20200
C4067       C  0.99855973  0.33548930  0.94078758    -0.33100
C4068       C  0.01333754  0.33128285  0.91928450     0.00900
C4069       C  0.02735489  0.35144759  0.90944027    -0.24400
C4070       C  0.02226280  0.44782769  0.95403067    -0.29000
C4071       C  0.00671080  0.45190661  0.97495001     0.06600
C4072       C  0.99264364  0.43183294  0.98459957    -0.27700
H4073       H  0.04973834  0.43466423  0.91366017     0.11300
H4074       H  0.05192305  0.39289796  0.89432405     0.12400
H4075       H  0.96791771  0.39060532  0.99953424     0.11500
H4076       H  0.97065605  0.34873164  0.98065010     0.10700
H4077       H  0.98735678  0.32033605  0.94834708     0.16100
H4078       H  0.03863028  0.34859563  0.89276713     0.12000
H4079       H  0.03299298  0.46332135  0.94648113     0.14900
H4080       H  0.98055866  0.43502768  0.00064045     0.14700
C4081       C  0.86224006  0.24511375  0.76421107    -0.18200
C4082       C  0.88590877  0.24581319  0.77558524    -0.20400
C4083       C  0.88879530  0.25499273  0.80013128     0.20300
C4084       C  0.86748592  0.26370871  0.81322764    -0.03300
C4085       C  0.84346637  0.26290866  0.80173795    -0.06400
C4086       C  0.84087417  0.25352154  0.77712634     0.20600
C4087       C  0.82205236  0.27120856  0.81497332     0.18700
C4088       C  0.82497049  0.28040356  0.83951695    -0.17800
C4089       C  0.84869854  0.28125927  0.85083339    -0.20100
C4090       C  0.87010234  0.27289550  0.83790649     0.20200
C4091       C  0.89393180  0.27310543  0.84939392    -0.33100
C4092       C  0.91534949  0.26388896  0.83675132     0.00900
C4093       C  0.91249139  0.25512996  0.81191883    -0.24400
C4094       C  0.81698025  0.25241507  0.76596395    -0.29000
C4095       C  0.79543474  0.26044156  0.77899387     0.06600
C4096       C  0.79816579  0.26991623  0.80354575    -0.27700
H4097       H  0.86062921  0.23781692  0.74530158     0.11300
H4098       H  0.90197712  0.23900721  0.76519106     0.12400
H4099       H  0.80884616  0.28684116  0.85005228     0.11500
H4100       H  0.85027191  0.28830310  0.86984297     0.10700
H4101       H  0.89563992  0.27984595  0.86850301     0.16100
H4102       H  0.92862799  0.24789800  0.80191027     0.12000
H4103       H  0.81500254  0.24488113  0.74716791     0.14900
H4104       H  0.78169810  0.27601516  0.81375672     0.14700
C4105       C  0.86706886  0.03417904  0.97334378    -0.18200
C4106       C  0.89096407  0.02340938  0.97218638    -0.20400
C4107       C  0.90916195  0.02940619  0.99019938     0.20300
C4108       C  0.90316704  0.04625423  0.00973455    -0.03300
C4109       C  0.87899229  0.05718089  0.01088219    -0.06400
C4110       C  0.86091222  0.05118609  0.99251651     0.20600
C4111       C  0.87310129  0.07446609  0.03007357     0.18700
C4112       C  0.89119724  0.08008023  0.04835311    -0.17800
C4113       C  0.91509911  0.06918085  0.04727991    -0.20100
C4114       C  0.92142049  0.05247380  0.02788031     0.20200
C4115       C  0.94567235  0.04209486  0.02611699    -0.33100
C4116       C  0.95172929  0.02537041  0.00658272     0.00900
C4117       C  0.93328246  0.01898381  0.98889153    -0.24400
C4118       C  0.83724459  0.06278471  0.99321398    -0.29000
C4119       C  0.83152838  0.08083475  0.01165024     0.06600
C4120       C  0.84949195  0.08629312  0.03024586    -0.27700
H4121       H  0.85346654  0.02939850  0.95905398     0.11300
H4122       H  0.89527624  0.01050632  0.95705909     0.12400
H4123       H  0.88696727  0.09317504  0.06333664     0.11500
H4124       H  0.92874853  0.07405126  0.06148958     0.10700
H4125       H  0.95984796  0.04717018  0.03971388     0.16100
H4126       H  0.93786870  0.00591775  0.97396046     0.12000
H4127       H  0.82365215  0.05856188  0.97872412     0.14900
H4128       H  0.84522194  0.10006302  0.04461748     0.14700
C4129       C  0.02582559  0.98511238  0.86333806    -0.18200
C4130       C  0.01482838  0.98406041  0.88717580    -0.20400
C4131       C  0.02555967  0.99682742  0.90755072     0.20300
C4132       C  0.04766998  0.01075697  0.90390229    -0.03300
C4133       C  0.05878510  0.01183490  0.87974846    -0.06400
C4134       C  0.04777809  0.99897507  0.85935588     0.20600
C4135       C  0.08101447  0.02553605  0.87608224     0.18700
C4136       C  0.09191496  0.03805564  0.89657157    -0.17800
C4137       C  0.08089111  0.03704291  0.92045439    -0.20100
C4138       C  0.05875729  0.02343786  0.92439401     0.20200
C4139       C  0.04760802  0.02209490  0.94839731    -0.33100
C4140       C  0.02552708  0.00823455  0.95202496     0.00900
C4141       C  0.01464888  0.99574051  0.93151465    -0.24400
C4142       C  0.05910531  0.99979899  0.83546976    -0.29000
C4143       C  0.08151088  0.01312977  0.83162182     0.06600
C4144       C  0.09217145  0.02612728  0.85212961    -0.27700
H4145       H  0.01716477  0.97499577  0.84799662     0.11300
H4146       H  0.99790606  0.97318554  0.88968670     0.12400
H4147       H  0.10905965  0.04859444  0.89414468     0.11500
H4148       H  0.08974823  0.04685101  0.93588203     0.10700
H4149       H  0.05608785  0.03160918  0.96422867     0.16100
H4150       H  0.99772301  0.98492107  0.93437582     0.12000
H4151       H  0.05085722  0.98942527  0.82006095     0.14900
H4152       H  0.10954603  0.03627864  0.84961900     0.14700
C4153       C  0.99522761  0.86218010  0.02187791    -0.18200
C4154       C  0.99500338  0.88570812  0.01004618    -0.20400
C4155       C  0.00204750  0.90744578  0.02320771     0.20300
C4156       C  0.00949484  0.90540551  0.04851153    -0.03300
C4157       C  0.00976424  0.88163346  0.06043743    -0.06400
C4158       C  0.00254498  0.85989184  0.04710534     0.20600
C4159       C  0.01704921  0.87970212  0.08578776     0.18700
C4160       C  0.02386517  0.90144422  0.09901003    -0.17800
C4161       C  0.02357524  0.92492378  0.08724329    -0.20100
C4162       C  0.01645133  0.92714934  0.06201781     0.20200
C4163       C  0.01581718  0.95076086  0.05022367    -0.33100
C4164       C  0.00800727  0.95298912  0.02517844     0.00900
C4165       C  0.00138835  0.93122098  0.01171026    -0.24400
C4166       C  0.00255545  0.83637073  0.05931635    -0.29000
C4167       C  0.00989277  0.83427995  0.08467514     0.06600
C4168       C  0.01718646  0.85614928  0.09762435    -0.27700
H4169       H  0.98959324  0.84576461  0.01129795     0.11300
H4170       H  0.98918448  0.88691751  0.99061006     0.12400
H4171       H  0.02937387  0.90030237  0.11854212     0.11500
H4172       H  0.02883769  0.94138925  0.09793634     0.10700
H4173       H  0.02097116  0.96746879  0.06059666     0.16100
H4174       H  0.99516834  0.93295127  0.99242236     0.12000
H4175       H  0.99671685  0.81975872  0.04914902     0.14900
H4176       H  0.02256333  0.85496145  0.11719988     0.14700
C4177       C  0.10962829  0.98552113  0.01751871    -0.18200
C4178       C  0.13377707  0.97515103  0.01670062    -0.20400
C4179       C  0.13889052  0.95401820  0.00175388     0.20300
C4180       C  0.11938912  0.94350168  0.98725119    -0.03300
C4181       C  0.09496507  0.95394238  0.98810675    -0.06400
C4182       C  0.09006088  0.97496001  0.00344055     0.20600
C4183       C  0.07540315  0.94313385  0.97387206     0.18700
C4184       C  0.08053633  0.92215574  0.95878315    -0.17800
C4185       C  0.10464924  0.91181963  0.95797774    -0.20100
C4186       C  0.12414417  0.92225887  0.97222590     0.20200
C4187       C  0.14810744  0.91137955  0.97215368    -0.33100
C4188       C  0.16759577  0.92112505  0.98712053     0.00900
C4189       C  0.16290562  0.94283389  0.00154018    -0.24400
C4190       C  0.06564950  0.98485465  0.00460565    -0.29000
C4191       C  0.04604516  0.97405478  0.99066858     0.06600
C4192       C  0.05106280  0.95332597  0.97516319    -0.27700
H4193       H  0.10620488  0.00170687  0.02936210     0.11300
H4194       H  0.14841580  0.98353634  0.02797188     0.12400
H4195       H  0.06583210  0.91359274  0.94773411     0.11500
H4196       H  0.10799619  0.89545604  0.94635815     0.10700
H4197       H  0.15136212  0.89474244  0.96088449     0.16100
H4198       H  0.17762525  0.95048300  0.01323350     0.12000
H4199       H  0.06176391  0.00094462  0.01646708     0.14900
H4200       H  0.03600363  0.94510083  0.96432413     0.14700
C4201       C  0.91248732  0.95401452  0.10361306    -0.18200
C4202       C  0.92267991  0.95564698  0.07939744    -0.20400
C4203       C  0.94244803  0.97219583  0.07428962     0.20300
C4204       C  0.95206918  0.98716297  0.09396557    -0.03300
C4205       C  0.94186830  0.98539000  0.11848171    -0.06400
C4206       C  0.92191055  0.96880797  0.12330135     0.20600
C4207       C  0.95145258  0.00043445  0.13806998     0.18700
C4208       C  0.97108305  0.01714933  0.13294718    -0.17800
C4209       C  0.98115236  0.01891725  0.10874152    -0.20100
C4210       C  0.97180593  0.00401157  0.08914900     0.20200
C4211       C  0.98183131  0.00571064  0.06484719    -0.33100
C4212       C  0.97240846  0.99092081  0.04513912     0.00900
C4213       C  0.95272069  0.97412573  0.04993951    -0.24400
C4214       C  0.91138973  0.96768919  0.14754661    -0.29000
C4215       C  0.92055318  0.98288650  0.16721564     0.06600
C4216       C  0.94091149  0.99893894  0.16227574    -0.27700
H4217       H  0.89712490  0.94120395  0.10692216     0.11300
H4218       H  0.91499976  0.94401514  0.06461564     0.12400
H4219       H  0.97860438  0.02896400  0.14766816     0.11500
H4220       H  0.99626143  0.03200838  0.10533489     0.10700
H4221       H  0.99707294  0.01859127  0.06113313     0.16100
H4222       H  0.94549924  0.96266891  0.03478221     0.12000
H4223       H  0.89559933  0.95541878  0.15093655     0.14900
H4224       H  0.94793556  0.01104562  0.17701968     0.14700
C4225       C  0.01735094  0.13351908  0.97266421    -0.18200
C4226       C  0.01855006  0.10923821  0.98266155    -0.20400
C4227       C  0.00345955  0.09000135  0.97295725     0.20300
C4228       C  0.98664001  0.09536102  0.95328092    -0.03300
C4229       C  0.98540047  0.11993574  0.94320556    -0.06400
C4230       C  0.00101658  0.13904810  0.95277709     0.20600
C4231       C  0.96901261  0.12519468  0.92314846     0.18700
C4232       C  0.95353991  0.10605261  0.91381101    -0.17800
C4233       C  0.95471795  0.08174807  0.92382127    -0.20100
C4234       C  0.97141129  0.07607946  0.94335845     0.20200
C4235       C  0.97335757  0.05149692  0.95298052    -0.33100
C4236       C  0.99020518  0.04612461  0.97251310     0.00900
C4237       C  0.00506519  0.06547288  0.98243642    -0.24400
C4238       C  0.00066853  0.16307163  0.94174403    -0.29000
C4239       C  0.98521180  0.16816726  0.92094020     0.06600
C4240       C  0.96899345  0.14922217  0.91221103    -0.27700
H4241       H  0.02947395  0.14790893  0.98027486     0.11300
H4242       H  0.03151078  0.10543617  0.99783063     0.12400
H4243       H  0.94076472  0.10978468  0.89847010     0.11500
H4244       H  0.94276657  0.06729545  0.91606036     0.10700
H4245       H  0.96195192  0.03658211  0.94526595     0.16100
H4246       H  0.01797942  0.06129312  0.99757342     0.12000
H4247       H  0.01332934  0.17740025  0.94857270     0.14900
H4248       H  0.95693868  0.15290475  0.89626957     0.14700
loop_ 
_geom_bond_atom_site_label_1 
_geom_bond_atom_site_label_2 
_geom_bond_distance 
_geom_bond_site_symmetry_2 
_ccdc_geom_bond_type 
C1            C2   1.417   1_565  A
C1            C6   1.419   1_556  A
C1         C4191   1.493       .  S
C2            C3   1.418   1_455  A
C2         C4140   1.494       .  S
C3            C4   1.419   1_556  A
C3         C4236   1.490       .  S
C4            C5   1.418   1_545  A
C4         C4116   1.495       .  S
C5            C6   1.421   1_655  A
C5         C4212   1.494       .  S
C6         C4164   1.493       .  S
O7           C15   1.276       .  A
O7          Co27   2.030       .  S
O8           C16   1.273       .  A
O8          Co28   2.011       .  S
O9           C17   1.265       .  A
O9          Co29   1.985       .  S
O10          C18   1.269       .  A
O10         Co30   1.997       .  S
O11          C17   1.271       .  A
O11         Co28   2.043       .  S
O12          C18   1.270       .  A
O12         Co27   2.033       .  S
O13          C16   1.265       .  A
O13         Co30   1.965   1_655  S
O14          C15   1.262   1_655  A
O14         Co29   1.956       .  S
C15        C3972   1.459       .  S
C16        C3996   1.456       .  S
C17        C4092   1.505       .  S
C18        C4044   1.509       .  S
O19          C32   1.266       .  A
O19         Co27   1.975       .  S
O20          C33   1.263       .  A
O20         Co28   1.970       .  S
O21          C34   1.269       .  A
O21         Co29   2.025       .  S
O22          C35   1.271       .  A
O22         Co30   2.033       .  S
O23          C35   1.264       .  A
O23         Co28   1.976   1_455  S
O24          C34   1.263   1_455  A
O24         Co27   1.978       .  S
O25          C32   1.273       .  A
O25         Co30   2.012       .  S
O26          C33   1.274       .  A
O26         Co29   2.021       .  S
Co27         O31   2.106   1_455  S
Co28         O31   2.108       .  S
Co29         O31   2.105       .  S
Co30         O31   2.111   1_455  S
C32        C3948   1.466       .  S
C33        C4020   1.466       .  S
C34        C4239   1.491       .  S
C35        C4068   1.495       .  S
O36          C44   1.269       .  A
O36         Co56   2.000       .  S
O37          C45   1.270       .  A
O37         Co57   2.005       .  S
O38          C46   1.265       .  A
O38         Co58   1.977       .  S
O39          C47   1.264       .  A
O39         Co59   1.975       .  S
O40          C46   1.273       .  A
O40         Co57   2.044       .  S
O41          C47   1.273       .  A
O41         Co56   2.042       .  S
O42          C45   1.264   1_545  A
O42         Co59   1.969       .  S
O43          C44   1.263   1_565  A
O43         Co58   1.967       .  S
C44        C3804   1.457       .  S
C45        C3828   1.462       .  S
C46        C3876   1.499       .  S
C47        C3900   1.498       .  S
O48          C61   1.258       .  A
O48         Co56   1.951       .  S
O49          C62   1.259       .  A
O49         Co57   1.956       .  S
O50          C63   1.272       .  A
O50         Co58   2.038       .  S
O51          C64   1.272       .  A
O51         Co59   2.037       .  S
O52          C64   1.265       .  A
O52         Co57   1.979   1_545  S
O53          C63   1.265       .  A
O53         Co56   1.977   1_565  S
O54          C61   1.271       .  A
O54         Co59   2.017       .  S
O55          C62   1.270       .  A
O55         Co58   2.007       .  S
Co56         O60   2.104   1_545  S
Co57         O60   2.106       .  S
Co58         O60   2.105       .  S
Co59         O60   2.105   1_545  S
C61        C3780   1.449       .  S
C62        C3852   1.451       .  S
C63        C4215   1.497       .  S
C64        C3924   1.499       .  S
C65          C66   1.425       .  A
C65          C70   1.429   1_545  A
C65        C3684   1.503       .  S
C66          C67   1.421   1_455  A
C66        C3735   1.499       .  S
C67          C68   1.419   1_545  A
C67        C3927   1.499       .  S
C68          C69   1.423       .  A
C68        C3663   1.497       .  S
C69          C70   1.428   1_655  A
C69        C3756   1.500       .  S
C70        C3711   1.504       .  S
O71          C79   1.271       .  A
O71         Co91   2.010       .  S
O72          C80   1.272       .  A
O72         Co92   2.010       .  S
O73          C81   1.267       .  A
O73         Co93   1.987       .  S
O74          C82   1.267       .  A
O74         Co94   1.989       .  S
O75          C81   1.274       .  A
O75         Co92   2.046       .  S
O76          C82   1.273       .  A
O76         Co91   2.044       .  S
O77          C80   1.265   1_455  A
O77         Co94   1.969       .  S
O78          C79   1.266   1_655  A
O78         Co93   1.970       .  S
C79        C3495   1.457       .  S
C80        C3519   1.458       .  S
C81        C3639   1.509       .  S
C82        C3588   1.507       .  S
O83          C96   1.263       .  A
O83         Co91   1.966       .  S
O84          C97   1.265       .  A
O84         Co92   1.972       .  S
O85          C98   1.271       .  A
O85         Co93   2.028       .  S
O86          C99   1.270       .  A
O86         Co94   2.026       .  S
O87          C99   1.268       .  A
O87         Co92   1.990   1_455  S
O88          C98   1.266       .  A
O88         Co91   1.986   1_655  S
O89          C96   1.273       .  A
O89         Co94   2.020       .  S
O90          C97   1.273       .  A
O90         Co93   2.020       .  S
Co91         O95   2.108       .  S
Co92         O95   2.111   1_655  S
Co93         O95   2.108   1_655  S
Co94         O95   2.107       .  S
C96        C3540   1.460       .  S
C97        C3564   1.465       .  S
C98        C3759   1.498       .  S
C99        C3615   1.499       .  S
O100        C108   1.274       .  A
O100       Co120   2.016       .  S
O101        C109   1.274       .  A
O101       Co121   2.021       .  S
O102        C110   1.263       .  A
O102       Co122   1.982       .  S
O103        C111   1.267       .  A
O103       Co123   1.988       .  S
O104        C110   1.269       .  A
O104       Co121   2.035       .  S
O105        C111   1.270       .  A
O105       Co120   2.031       .  S
O106        C109   1.262       .  A
O106       Co123   1.952   1_556  S
O107        C108   1.266   1_556  A
O107       Co122   1.965       .  S
C108       C3327   1.457       .  S
C109       C3348   1.451       .  S
C110       C3420   1.498       .  S
C111       C3444   1.501       .  S
O112        C125   1.266       .  A
O112       Co120   1.964       .  S
O113        C126   1.262       .  A
O113       Co121   1.955       .  S
O114        C127   1.267       .  A
O114       Co122   2.017       .  S
O115        C128   1.272       .  A
O115       Co123   2.050       .  S
O116        C128   1.264   1_556  A
O116       Co121   1.985       .  S
O117        C127   1.266   1_554  A
O117       Co120   1.988       .  S
O118        C125   1.272       .  A
O118       Co123   1.989       .  S
O119        C126   1.277       .  A
O119       Co122   2.028       .  S
Co120       O124   2.117   1_554  S
Co121       O124   2.109       .  S
Co122       O124   2.096       .  S
Co123       O124   2.100   1_554  S
C125       C3372   1.457       .  S
C126       C3396   1.457       .  S
C127       C4188   1.496       .  S
C128       C3468   1.506       .  S
O129        C137   1.260   1_455  A
O129       Co149   1.944       .  S
O130        C138   1.267       .  A
O130       Co150   1.963   1_455  S
O131        C139   1.267       .  A
O131       Co151   2.027       .  S
O132        C140   1.267       .  A
O132       Co152   2.033       .  S
O133        C139   1.268       .  A
O133       Co150   2.003       .  S
O134        C140   1.262       .  A
O134       Co149   1.982       .  S
O135        C138   1.275       .  A
O135       Co152   2.010       .  S
O136        C137   1.276       .  A
O136       Co151   2.023       .  S
C137       C3855   1.444       .  S
C138       C3228   1.450       .  S
C139       C3276   1.508       .  S
C140       C3300   1.498       .  S
O141        C154   1.276       .  A
O141       Co149   2.024       .  S
O142        C155   1.276       .  A
O142       Co150   2.018       .  S
O143        C156   1.259   1_655  A
O143       Co151   1.978       .  S
O144        C157   1.265   1_455  A
O144       Co152   1.987       .  S
O145        C157   1.268       .  A
O145       Co150   2.028       .  S
O146        C156   1.268       .  A
O146       Co149   2.031       .  S
O147        C154   1.265       .  A
O147       Co152   1.959       .  S
O148        C155   1.261       .  A
O148       Co151   1.942       .  S
Co149       O153   2.097   1_455  S
Co150       O153   2.105       .  S
Co151       O153   2.099       .  S
Co152       O153   2.104   1_455  S
C154       C3324   1.456       .  S
C155       C3207   1.442       .  S
C156       C4167   1.495       .  S
C157       C3252   1.500       .  S
C158        C159   1.424       .  A
C158        C163   1.422       .  A
C158       C3159   1.488       .  S
C159        C160   1.421       .  A
C159       C3303   1.500       .  S
C160        C161   1.425       .  A
C160       C3447   1.505       .  S
C161        C162   1.427       .  A
C161       C3132   1.493       .  S
C162        C163   1.421       .  A
C162       C3108   1.500       .  S
C163       C3180   1.506       .  S
O164        C172   1.262       .  A
O164       Co184   1.959       .  S
O165        C173   1.259       .  A
O165       Co185   1.951       .  S
O166        C174   1.268       .  A
O166       Co186   2.028       .  S
O167        C175   1.271       .  A
O167       Co187   2.039       .  S
O168        C174   1.262       .  A
O168       Co185   1.976       .  S
O169        C175   1.266       .  A
O169       Co184   1.990       .  S
O170        C173   1.273       .  A
O170       Co187   2.018       .  S
O171        C172   1.274       .  A
O171       Co186   2.024       .  S
C172       C3543   1.457       .  S
C173       C3012   1.448       .  S
C174       C3084   1.491       .  S
C175       C3183   1.506       .  S
O176        C189   1.272       .  A
O176       Co184   2.004       .  S
O177        C190   1.273       .  A
O177       Co185   2.018       .  S
O178        C191   1.263       .  A
O178       Co186   1.979       .  S
O179        C192   1.266       .  A
O179       Co187   1.988       .  S
O180        C192   1.271       .  A
O180       Co185   2.037       .  S
O181        C191   1.273       .  A
O181       Co184   2.048       .  S
O182        C189   1.264       .  A
O182       Co187   1.965       .  S
O183        C190   1.263       .  A
O183       Co186   1.963       .  S
Co184       O188   2.108       .  S
Co185       O188   2.103       .  S
Co186       O188   2.107       .  S
Co187       O188   2.110       .  S
C189       C2964   1.454       .  S
C190       C2988   1.458       .  S
C191       C3060   1.506       .  S
C192       C3036   1.505       .  S
C193        C194   1.420       .  A
C193        C198   1.426       .  A
C193       C2892   1.499       .  S
C194        C195   1.422       .  A
C194       C3591   1.506       .  S
C195        C196   1.424       .  A
C195       C3087   1.486       .  S
C196        C197   1.422       .  A
C196       C2916   1.506       .  S
C197        C198   1.427       .  A
C197       C2940   1.501       .  S
C198       C3423   1.498       .  S
O199        C207   1.270       .  A
O199       Co219   2.000       .  S
O200        C208   1.270       .  A
O200       Co220   2.003       .  S
O201        C209   1.264       .  A
O201       Co221   1.974       .  S
O202        C210   1.267       .  A
O202       Co222   1.983       .  S
O203        C209   1.273       .  A
O203       Co220   2.042       .  S
O204        C210   1.273       .  A
O204       Co219   2.040       .  S
O205        C208   1.264       .  A
O205       Co222   1.969       .  S
O206        C207   1.264       .  A
O206       Co221   1.971       .  S
C207       C3351   1.458       .  S
C208       C2772   1.460       .  S
C209       C2820   1.497       .  S
C210       C2868   1.500       .  S
O211        C224   1.262       .  A
O211       Co219   1.960       .  S
O212        C225   1.261       .  A
O212       Co220   1.958       .  S
O213        C226   1.271       .  A
O213       Co221   2.032       .  S
O214        C227   1.273       .  A
O214       Co222   2.045       .  S
O215        C227   1.267       .  A
O215       Co220   1.987       .  S
O216        C226   1.268       .  A
O216       Co219   1.990       .  S
O217        C224   1.271       .  A
O217       Co222   2.006       .  S
O218        C225   1.272       .  A
O218       Co221   2.015       .  S
Co219       O223   2.106       .  S
Co220       O223   2.109       .  S
Co221       O223   2.103       .  S
Co222       O223   2.106       .  S
C224       C2748   1.455       .  S
C225       C2796   1.452       .  S
C226       C2943   1.501       .  S
C227       C2844   1.508       .  S
C228        C229   1.429       .  A
C228        C233   1.425       .  A
C228       C2652   1.504       .  S
C229        C230   1.430       .  A
C229       C4095   1.506       .  S
C230        C231   1.426       .  A
C230       C2727   1.497       .  S
C231        C232   1.425       .  A
C231       C2700   1.511       .  S
C232        C233   1.424       .  A
C232       C2676   1.494       .  S
C233       C2628   1.507       .  S
O234        C242   1.275       .  A
O234       Co254   2.021       .  S
O235        C243   1.276       .  A
O235       Co255   2.022       .  S
O236        C244   1.265       .  A
O236       Co256   1.992       .  S
O237        C245   1.265       .  A
O237       Co257   1.991       .  S
O238        C244   1.267       .  A
O238       Co255   2.029       .  S
O239        C245   1.267       .  A
O239       Co254   2.029       .  S
O240        C243   1.265       .  A
O240       Co257   1.959       .  S
O241        C242   1.265       .  A
O241       Co256   1.960       .  S
C242       C3999   1.454       .  S
C243       C3516   1.454       .  S
C244       C2556   1.503       .  S
C245       C2580   1.503       .  S
O246        C259   1.264       .  A
O246       Co254   1.953       .  S
O247        C260   1.262       .  A
O247       Co255   1.950       .  S
O248        C261   1.268       .  A
O248       Co256   2.031       .  S
O249        C262   1.268       .  A
O249       Co257   2.037       .  S
O250        C262   1.261       .  A
O250       Co255   1.975       .  S
O251        C261   1.262       .  A
O251       Co254   1.979       .  S
O252        C259   1.277       .  A
O252       Co257   2.022       .  S
O253        C260   1.276       .  A
O253       Co256   2.024       .  S
Co254       O258   2.110       .  S
Co255       O258   2.104       .  S
Co256       O258   2.107       .  S
Co257       O258   2.104       .  S
C259       C2532   1.459       .  S
C260       C2508   1.450       .  S
C261       C2724   1.496       .  S
C262       C2604   1.499       .  S
O263        C271   1.261   1_455  A
O263       Co283   1.958       .  S
O264        C272   1.267   1_655  A
O264       Co284   1.977       .  S
O265        C273   1.272       .  A
O265       Co285   2.035       .  S
O266        C274   1.273       .  A
O266       Co286   2.048       .  S
O267        C273   1.269       .  A
O267       Co284   1.991       .  S
O268        C274   1.266       .  A
O268       Co283   1.979       .  S
O269        C272   1.269       .  A
O269       Co286   1.987       .  S
O270        C271   1.272       .  A
O270       Co285   2.012       .  S
C271       C3783   1.450       .  S
C272       C2412   1.465       .  S
C273       C2463   1.501       .  S
C274       C2484   1.503       .  S
O275        C288   1.271       .  A
O275       Co283   2.007       .  S
O276        C289   1.272       .  A
O276       Co284   2.010       .  S
O277        C290   1.265   1_655  A
O277       Co285   1.984       .  S
O278        C291   1.269       .  A
O278       Co286   1.985   1_655  S
O279        C291   1.274       .  A
O279       Co284   2.044       .  S
O280        C290   1.271       .  A
O280       Co283   2.038       .  S
O281        C288   1.262       .  A
O281       Co286   1.960       .  S
O282        C289   1.262       .  A
O282       Co285   1.960       .  S
Co283       O287   2.106   1_455  S
Co284       O287   2.117       .  S
Co285       O287   2.101       .  S
Co286       O287   2.100   1_455  S
C288       C2388   1.452       .  S
C289       C2364   1.452       .  S
C290       C3732   1.500       .  S
C291       C2439   1.504       .  S
C292        C293   1.427       .  A
C292        C297   1.423       .  A
C292       C2247   1.500       .  S
C293        C294   1.424       .  A
C293       C2487   1.502       .  S
C294        C295   1.425       .  A
C294       C2268   1.499       .  S
C295        C296   1.426       .  A
C295       C2319   1.506       .  S
C296        C297   1.424       .  A
C296       C2292   1.498       .  S
C297       C2343   1.504       .  S
O298        C306   1.262   1_554  A
O298       Co318   1.956       .  S
O299        C307   1.263   1_556  A
O299       Co319   1.961       .  S
O300        C308   1.269       .  A
O300       Co320   2.032       .  S
O301        C309   1.271       .  A
O301       Co321   2.046       .  S
O302        C308   1.265       .  A
O302       Co319   1.987       .  S
O303        C309   1.263       .  A
O303       Co318   1.978       .  S
O304        C307   1.273       .  A
O304       Co321   2.011       .  S
O305        C306   1.275       .  A
O305       Co320   2.026       .  S
C306       C3951   1.457       .  S
C307       C2148   1.453       .  S
C308       C2223   1.502       .  S
C309       C2340   1.503       .  S
O310        C323   1.273       .  A
O310       Co318   2.016       .  S
O311        C324   1.274       .  A
O311       Co319   2.018       .  S
O312        C325   1.261   1_556  A
O312       Co320   1.978       .  S
O313        C326   1.265       .  A
O313       Co321   1.985   1_556  S
O314        C326   1.271       .  A
O314       Co319   2.042       .  S
O315        C325   1.269       .  A
O315       Co318   2.037       .  S
O316        C323   1.260       .  A
O316       Co321   1.951       .  S
O317        C324   1.260       .  A
O317       Co320   1.951       .  S
Co318       O322   2.108   1_554  S
Co319       O322   2.107       .  S
Co320       O322   2.106       .  S
Co321       O322   2.114   1_554  S
C323       C2127   1.447       .  S
C324       C2100   1.448       .  S
C325       C2175   1.498       .  S
C326       C2199   1.504       .  S
C327        C328   1.428       .  A
C327        C332   1.431       .  A
C327       C2220   1.498       .  S
C328        C329   1.426       .  A
C328       C4047   1.509       .  S
C329        C330   1.423       .  A
C329       C2031   1.501       .  S
C330        C331   1.422       .  A
C330       C2004   1.498       .  S
C331        C332   1.428       .  A
C331       C2076   1.502       .  S
C332       C2052   1.511       .  S
O333        C341   1.272       .  A
O333       Co353   2.020       .  S
O334        C342   1.271       .  A
O334       Co354   2.004       .  S
O335        C343   1.265       .  A
O335       Co355   1.979       .  S
O336        C344   1.269       .  A
O336       Co356   1.992       .  S
O337        C343   1.273       .  A
O337       Co354   2.041       .  S
O338        C344   1.270       .  A
O338       Co353   2.025       .  S
O339        C342   1.265       .  A
O339       Co356   1.970       .  S
O340        C341   1.261       .  A
O340       Co355   1.961       .  S
C341       C1860   1.456       .  S
C342       C1908   1.457       .  S
C343       C1983   1.497       .  S
C344       C1959   1.500       .  S
O345        C358   1.261       .  A
O345       Co353   1.958       .  S
O346        C359   1.262       .  A
O346       Co354   1.963       .  S
O347        C360   1.272       .  A
O347       Co355   2.040       .  S
O348        C361   1.273       .  A
O348       Co356   2.037       .  S
O349        C361   1.268       .  A
O349       Co354   1.989       .  S
O350        C360   1.263       .  A
O350       Co353   1.976       .  S
O351        C358   1.272       .  A
O351       Co356   2.010       .  S
O352        C359   1.271       .  A
O352       Co355   2.007       .  S
Co353       O357   2.100       .  S
Co354       O357   2.107       .  S
Co355       O357   2.104       .  S
Co356       O357   2.107       .  S
C358       C1932   1.453       .  S
C359       C1884   1.454       .  S
C360       C2679   1.498       .  S
C361       C2079   1.504       .  S
O362        C370   1.264       .  A
O362       Co382   1.964   1_565  S
O363        C371   1.259   1_565  A
O363       Co383   1.954       .  S
O364        C372   1.272       .  A
O364       Co384   2.039       .  S
O365        C373   1.272       .  A
O365       Co385   2.034       .  S
O366        C372   1.265       .  A
O366       Co383   1.977       .  S
O367        C373   1.268       .  A
O367       Co382   1.987       .  S
O368        C371   1.271       .  A
O368       Co385   2.011       .  S
O369        C370   1.270       .  A
O369       Co384   1.993       .  S
C370       C3375   1.461       .  S
C371       C1788   1.448       .  S
C372       C3135   1.493       .  S
C373       C2316   1.500       .  S
O374        C387   1.270       .  A
O374       Co382   2.002       .  S
O375        C388   1.270       .  A
O375       Co383   2.008       .  S
O376        C389   1.265       .  A
O376       Co384   1.974   1_545  S
O377        C390   1.266   1_545  A
O377       Co385   1.978       .  S
O378        C390   1.272       .  A
O378       Co383   2.036       .  S
O379        C389   1.274       .  A
O379       Co382   2.038       .  S
O380        C387   1.265       .  A
O380       Co385   1.971       .  S
O381        C388   1.261       .  A
O381       Co384   1.960       .  S
Co382       O386   2.114   1_545  S
Co383       O386   2.107       .  S
Co384       O386   2.099       .  S
Co385       O386   2.097   1_545  S
C387       C1764   1.461       .  S
C388       C1740   1.451       .  S
C389       C1815   1.495       .  S
C390       C1836   1.494       .  S
C391        C392   1.424       .  A
C391        C396   1.423       .  A
C391       C1980   1.503       .  S
C392        C393   1.428   1_545  A
C392       C1671   1.504       .  S
C393        C394   1.429       .  A
C393       C1839   1.501       .  S
C394        C395   1.429       .  A
C394       C1716   1.511       .  S
C395        C396   1.426   1_565  A
C395       C1644   1.500       .  S
C396       C1692   1.502       .  S
O397        C405   1.259       .  A
O397       Co417   1.956       .  S
O398        C406   1.263       .  A
O398       Co418   1.966       .  S
O399        C407   1.271       .  A
O399       Co419   2.029       .  S
O400        C408   1.276       .  A
O400       Co420   2.054       .  S
O401        C407   1.266       .  A
O401       Co418   1.980       .  S
O402        C408   1.265       .  A
O402       Co417   1.985       .  S
O403        C406   1.269       .  A
O403       Co420   2.005       .  S
O404        C405   1.270       .  A
O404       Co419   2.008       .  S
C405       C3015   1.448       .  S
C406       C1572   1.456       .  S
C407       C1596   1.492       .  S
C408       C1719   1.506       .  S
O409        C422   1.270       .  A
O409       Co417   2.008       .  S
O410        C423   1.271       .  A
O410       Co418   2.013       .  S
O411        C424   1.267       .  A
O411       Co419   1.985       .  S
O412        C425   1.265       .  A
O412       Co420   1.979       .  S
O413        C425   1.273       .  A
O413       Co418   2.036       .  S
O414        C424   1.274       .  A
O414       Co417   2.043       .  S
O415        C422   1.258       .  A
O415       Co420   1.955       .  S
O416        C423   1.264       .  A
O416       Co419   1.967       .  S
Co417       O421   2.102       .  S
Co418       O421   2.107       .  S
Co419       O421   2.106       .  S
Co420       O421   2.104       .  S
C422       C1743   1.447       .  S
C423       C1548   1.461       .  S
C424       C3111   1.504       .  S
C425       C1623   1.497       .  S
O426        C434   1.263       .  A
O426       Co446   1.953       .  S
O427        C435   1.262       .  A
O427       Co447   1.950       .  S
O428        C436   1.267       .  A
O428       Co448   2.029       .  S
O429        C437   1.268       .  A
O429       Co449   2.032       .  S
O430        C436   1.263   1_545  A
O430       Co447   1.988       .  S
O431        C437   1.264       .  A
O431       Co446   1.989   1_545  S
O432        C435   1.276       .  A
O432       Co449   2.021       .  S
O433        C434   1.277       .  A
O433       Co448   2.026       .  S
C434       C2751   1.452       .  S
C435       C1887   1.447       .  S
C436       C1524   1.501       .  S
C437       C1695   1.503       .  S
O438        C451   1.277       .  A
O438       Co446   2.018       .  S
O439        C452   1.275       .  A
O439       Co447   2.018       .  S
O440        C453   1.263       .  A
O440       Co448   1.989       .  S
O441        C454   1.268       .  A
O441       Co449   1.997       .  S
O442        C454   1.268       .  A
O442       Co447   2.033       .  S
O443        C453   1.267       .  A
O443       Co446   2.031       .  S
O444        C451   1.267       .  A
O444       Co449   1.969   1_565  S
O445        C452   1.264   1_565  A
O445       Co448   1.955       .  S
Co446       O450   2.104   1_565  S
Co447       O450   2.102       .  S
Co448       O450   2.104   1_565  S
Co449       O450   2.108       .  S
C451       C1476   1.461       .  S
C452       C1452   1.450       .  S
C453       C1500   1.501       .  S
C454       C2631   1.509       .  S
C455        C456   1.426   1_545  A
C455        C460   1.427       .  A
C455       C1812   1.498       .  S
C456        C457   1.425   1_554  A
C456       C3471   1.510       .  S
C457        C458   1.428       .  A
C457       C2871   1.500       .  S
C458        C459   1.429   1_565  A
C458       C1527   1.502       .  S
C459        C460   1.425   1_556  A
C459       C1404   1.510       .  S
C460       C1428   1.502       .  S
O461        C469   1.263       .  A
O461       Co481   1.958       .  S
O462        C470   1.263       .  A
O462       Co482   1.958       .  S
O463        C471   1.270       .  A
O463       Co483   2.028       .  S
O464        C472   1.272       .  A
O464       Co484   2.047       .  S
O465        C471   1.271       .  A
O465       Co482   2.001       .  S
O466        C472   1.264       .  A
O466       Co481   1.982       .  S
O467        C470   1.272       .  A
O467       Co484   1.995       .  S
O468        C469   1.274       .  A
O468       Co483   2.017       .  S
C469       C2151   1.452       .  S
C470       C1335   1.456       .  S
C471       C1356   1.508       .  S
C472       C1431   1.503       .  S
O473        C486   1.275       .  A
O473       Co481   2.025       .  S
O474        C487   1.271       .  A
O474       Co482   1.984       .  S
O475        C488   1.267       .  A
O475       Co483   1.992       .  S
O476        C489   1.267       .  A
O476       Co484   1.988       .  S
O477        C489   1.274       .  A
O477       Co482   2.048       .  S
O478        C488   1.268       .  A
O478       Co481   2.021       .  S
O479        C486   1.262       .  A
O479       Co484   1.955       .  S
O480        C487   1.268       .  A
O480       Co483   1.974       .  S
Co481       O485   2.103       .  S
Co482       O485   2.111       .  S
Co483       O485   2.110       .  S
Co484       O485   2.101       .  S
C486       C1767   1.457       .  S
C487       C1308   1.466       .  S
C488       C2295   1.497       .  S
C489       C1383   1.508       .  S
O490        C498   1.273       .  A
O490       Co510   2.016       .  S
O491        C499   1.274       .  A
O491       Co511   2.018       .  S
O492        C500   1.264       .  A
O492       Co512   1.979       .  S
O493        C501   1.266       .  A
O493       Co513   1.987       .  S
O494        C500   1.270       .  A
O494       Co511   2.034       .  S
O495        C501   1.270       .  A
O495       Co510   2.033       .  S
O496        C499   1.264       .  A
O496       Co513   1.958       .  S
O497        C498   1.260       .  A
O497       Co512   1.952       .  S
C498       C2391   1.447       .  S
C499       C1911   1.452       .  S
C500       C2007   1.496       .  S
C501       C2271   1.501       .  S
O502        C515   1.262       .  A
O502       Co510   1.958       .  S
O503        C516   1.264       .  A
O503       Co511   1.966       .  S
O504        C517   1.271       .  A
O504       Co512   2.040       .  S
O505        C518   1.269       .  A
O505       Co513   2.029       .  S
O506        C518   1.265       .  A
O506       Co511   1.983       .  S
O507        C517   1.262       .  A
O507       Co510   1.973       .  S
O508        C515   1.272       .  A
O508       Co513   2.011       .  S
O509        C516   1.272       .  A
O509       Co512   2.008       .  S
Co510       O514   2.101       .  S
Co511       O514   2.105       .  S
Co512       O514   2.103       .  S
Co513       O514   2.107       .  S
C515       C1791   1.451       .  S
C516       C1284   1.455       .  S
C517       C3687   1.493       .  S
C518       C1668   1.495       .  S
C519        C520   1.428       .  A
C519        C524   1.429       .  A
C519       C3879   1.499       .  S
C520        C521   1.420       .  A
C520       C1215   1.496       .  S
C521        C522   1.414       .  A
C521       C1620   1.498       .  S
C522        C523   1.418       .  A
C522       C1260   1.490       .  S
C523        C524   1.425       .  A
C523       C1239   1.494       .  S
C524       C3279   1.507       .  S
O525        C533   1.279       .  A
O525       Co545   2.032       .  S
O526        C534   1.278       .  A
O526       Co546   2.021       .  S
O527        C535   1.260       .  A
O527       Co547   1.979       .  S
O528        C536   1.262       .  A
O528       Co548   1.988       .  S
O529        C535   1.268       .  A
O529       Co546   2.042       .  S
O530        C536   1.263       .  A
O530       Co545   2.018       .  S
O531        C534   1.265       .  A
O531       Co548   1.949       .  S
O532        C533   1.264       .  A
O532       Co547   1.953       .  S
C533       C1551   1.455       .  S
C534       C1311   1.454       .  S
C535       C1140   1.504       .  S
C536       C1164   1.496       .  S
O537        C550   1.263       .  A
O537       Co545   1.946       .  S
O538        C551   1.263       .  A
O538       Co546   1.947       .  S
O539        C552   1.263       .  A
O539       Co547   2.018       .  S
O540        C553   1.265       .  A
O540       Co548   2.025       .  S
O541        C553   1.263       .  A
O541       Co546   1.994       .  S
O542        C552   1.259       .  A
O542       Co545   1.978       .  S
O543        C550   1.279       .  A
O543       Co548   2.032       .  S
O544        C551   1.279       .  A
O544       Co547   2.031       .  S
Co545       O549   2.104       .  S
Co546       O549   2.106       .  S
Co547       O549   2.102       .  S
Co548       O549   2.105       .  S
C550       C1095   1.453       .  S
C551       C1119   1.451       .  S
C552       C1263   1.490       .  S
C553       C1188   1.503       .  S
C554        C555   1.424       .  A
C554        C559   1.426       .  A
C554       C2460   1.505       .  S
C555        C556   1.429       .  A
C555       C3903   1.500       .  S
C556        C557   1.427       .  A
C556       C1044   1.502       .  S
C557        C558   1.425       .  A
C557       C1380   1.507       .  S
C558        C559   1.426       .  A
C558       C1191   1.504       .  S
C559       C1068   1.501       .  S
C560        C561   1.424       .  A
C560        C565   1.423       .  A
C560       C3636   1.509       .  S
C561        C562   1.428       .  A
C561       C2607   1.497       .  S
C562        C563   1.427       .  A
C562       C1020   1.505       .  S
C563        C564   1.428       .  A
C563       C2847   1.509       .  S
C564        C565   1.428       .  A
C564       C1503   1.500       .  S
C565        C996   1.500       .  S
O566        C574   1.264   1_545  A
O566       Co586   1.966       .  S
O567        C575   1.261   1_565  A
O567       Co587   1.954       .  S
O568        C576   1.271       .  A
O568       Co588   2.033       .  S
O569        C577   1.270       .  A
O569       Co589   2.027       .  S
O570        C576   1.264       .  A
O570       Co587   1.982       .  S
O571        C577   1.266       .  A
O571       Co586   1.987       .  S
O572        C575   1.273       .  A
O572       Co589   2.018       .  S
O573        C574   1.273       .  A
O573       Co588   2.013       .  S
C574       C3399   1.462       .  S
C575       C1287   1.449       .  S
C576       C2895   1.500       .  S
C577       C2028   1.497       .  S
O578        C591   1.274       .  A
O578       Co586   2.015       .  S
O579        C592   1.271       .  A
O579       Co587   2.012       .  S
O580        C593   1.267   1_565  A
O580       Co588   1.984       .  S
O581        C594   1.267   1_545  A
O581       Co589   1.989       .  S
O582        C594   1.272       .  A
O582       Co587   2.036       .  S
O583        C593   1.269       .  A
O583       Co586   2.027       .  S
O584        C591   1.266       .  A
O584       Co589   1.973       .  S
O585        C592   1.265       .  A
O585       Co588   1.967       .  S
Co586       O590   2.106   1_545  S
Co587       O590   2.104       .  S
Co588       O590   2.106       .  S
Co589       O590   2.107   1_545  S
C591       C3975   1.466       .  S
C592       C3492   1.456       .  S
C593       C4143   1.497       .  S
C594       C3708   1.503       .  S
O595        C603   1.262       .  A
O595       Co615   1.966       .  S
O596        C604   1.264       .  A
O596       Co616   1.972       .  S
O597        C605   1.274       .  A
O597       Co617   2.044       .  S
O598        C606   1.272       .  A
O598       Co618   2.031       .  S
O599        C605   1.266       .  A
O599       Co616   1.983       .  S
O600        C606   1.267       .  A
O600       Co615   1.983       .  S
O601        C604   1.271       .  A
O601       Co618   2.004       .  S
O602        C603   1.269       .  A
O602       Co617   2.001       .  S
C603       C2511   1.456       .  S
C604       C1092   1.463       .  S
C605        C972   1.503       .  S
C606        C948   1.498       .  S
O607        C620   1.270       .  A
O607       Co615   2.008       .  S
O608        C621   1.271       .  A
O608       Co616   2.015       .  S
O609        C622   1.268       .  A
O609       Co617   1.989       .  S
O610        C623   1.268       .  A
O610       Co618   1.984       .  S
O611        C623   1.273       .  A
O611       Co616   2.039       .  S
O612        C622   1.274       .  A
O612       Co615   2.047       .  S
O613        C620   1.263       .  A
O613       Co618   1.964       .  S
O614        C621   1.260       .  A
O614       Co617   1.956       .  S
Co615       O619   2.111       .  S
Co616       O619   2.109       .  S
Co617       O619   2.105       .  S
Co618       O619   2.103       .  S
C620       C1863   1.456       .  S
C621       C2367   1.450       .  S
C622       C2703   1.508       .  S
C623       C1071   1.502       .  S
C624        C625   1.424       .  A
C624        C629   1.428       .  A
C624       C3063   1.509       .  S
C625        C626   1.424   1_455  A
C625       C3612   1.498       .  S
C626        C627   1.426       .  A
C626       C2559   1.504       .  S
C627        C628   1.429       .  A
C627        C975   1.502       .  S
C628        C629   1.431   1_655  A
C628       C2436   1.510       .  S
C629        C924   1.502       .  S
O630        C638   1.270       .  A
O630       Co650   1.996       .  S
O631        C639   1.271       .  A
O631       Co651   2.017       .  S
O632        C640   1.269       .  A
O632       Co652   1.987       .  S
O633        C641   1.266       .  A
O633       Co653   1.981       .  S
O634        C640   1.270       .  A
O634       Co651   2.028       .  S
O635        C641   1.271       .  A
O635       Co650   2.037       .  S
O636        C639   1.260   1_554  A
O636       Co653   1.956       .  S
O637        C638   1.261       .  A
O637       Co652   1.958   1_554  S
C638       C3204   1.451       .  S
C639       C2775   1.454       .  S
C640       C1023   1.497       .  S
C641       C1236   1.497       .  S
O642        C655   1.263       .  A
O642       Co650   1.964       .  S
O643        C656   1.266       .  A
O643       Co651   1.975       .  S
O644        C657   1.273       .  A
O644       Co652   2.039       .  S
O645        C658   1.272       .  A
O645       Co653   2.033       .  S
O646        C658   1.267   1_556  A
O646       Co651   1.981       .  S
O647        C657   1.268   1_554  A
O647       Co650   1.988       .  S
O648        C655   1.270       .  A
O648       Co653   2.000       .  S
O649        C656   1.269       .  A
O649       Co652   1.982       .  S
Co650       O654   2.111       .  S
Co651       O654   2.110   1_556  S
Co652       O654   2.103   1_556  S
Co653       O654   2.105       .  S
C655       C1116   1.459       .  S
C656       C2535   1.469       .  S
C657        C876   1.504       .  S
C658        C900   1.497       .  S
C659        C660   1.424       .  A
C659        C664   1.428       .  A
C659        C852   1.502       .  S
C660        C661   1.421   1_556  A
C660       C2823   1.502       .  S
C661        C662   1.425       .  A
C661        C903   1.500       .  S
C662        C663   1.428       .  A
C662       C1143   1.503       .  S
C663        C664   1.429   1_554  A
C663       C1359   1.505       .  S
C664       C2196   1.505       .  S
O665        C673   1.263   1_554  A
O665       Co685   1.960       .  S
O666        C674   1.265       .  A
O666       Co686   1.965   1_554  S
O667        C675   1.268       .  A
O667       Co687   2.023       .  S
O668        C676   1.271       .  A
O668       Co688   2.040       .  S
O669        C675   1.268       .  A
O669       Co686   1.987       .  S
O670        C676   1.263       .  A
O670       Co685   1.980       .  S
O671        C674   1.272       .  A
O671       Co688   1.990       .  S
O672        C673   1.276       .  A
O672       Co687   2.029       .  S
C673       C4023   1.461       .  S
C674       C1332   1.459       .  S
C675       C2655   1.496       .  S
C676       C1047   1.495       .  S
O677        C690   1.275       .  A
O677       Co685   2.022       .  S
O678        C691   1.272       .  A
O678       Co686   2.004       .  S
O679        C692   1.263   1_556  A
O679       Co687   1.975       .  S
O680        C693   1.267       .  A
O680       Co688   1.988   1_556  S
O681        C693   1.272       .  A
O681       Co686   2.040       .  S
O682        C692   1.268       .  A
O682       Co685   2.028       .  S
O683        C690   1.262       .  A
O683       Co688   1.952       .  S
O684        C691   1.265       .  A
O684       Co687   1.966       .  S
Co685       O689   2.106       .  S
Co686       O689   2.115   1_556  S
Co687       O689   2.099   1_556  S
Co688       O689   2.101       .  S
C690       C3807   1.452       .  S
C691       C1455   1.455       .  S
C692       C4119   1.490       .  S
C693       C1407   1.506       .  S
O694        C702   1.274       .  A
O694       Co714   2.019       .  S
O695        C703   1.272       .  A
O695       Co715   2.006       .  S
O696        C704   1.263       .  A
O696       Co716   1.986       .  S
O697        C705   1.266       .  A
O697       Co717   1.984       .  S
O698        C704   1.273       .  A
O698       Co715   2.052       .  S
O699        C705   1.271       .  A
O699       Co714   2.036       .  S
O700        C703   1.264       .  A
O700       Co717   1.963       .  S
O701        C702   1.263       .  A
O701       Co716   1.960       .  S
C702       C2991   1.454       .  S
C703       C2103   1.454       .  S
C704       C2055   1.506       .  S
C705       C2919   1.501       .  S
O706        C719   1.264       .  A
O706       Co714   1.962       .  S
O707        C720   1.258       .  A
O707       Co715   1.949       .  S
O708        C721   1.271       .  A
O708       Co716   2.034       .  S
O709        C722   1.269       .  A
O709       Co717   2.033       .  S
O710        C722   1.264       .  A
O710       Co715   1.985       .  S
O711        C721   1.265       .  A
O711       Co714   1.987       .  S
O712        C719   1.273       .  A
O712       Co717   2.017       .  S
O713        C720   1.275       .  A
O713       Co716   2.024       .  S
Co714       O718   2.105       .  S
Co715       O718   2.107       .  S
Co716       O718   2.101       .  S
Co717       O718   2.109       .  S
C719       C2799   1.455       .  S
C720       C1935   1.450       .  S
C721        C828   1.503       .  S
C722        C855   1.498       .  S
O723        C731   1.276       .  A
O723       Co743   2.028       .  S
O724        C732   1.274       .  A
O724       Co744   2.023       .  S
O725        C733   1.264       .  A
O725       Co745   1.984       .  S
O726        C734   1.262       .  A
O726       Co746   1.978       .  S
O727        C733   1.269       .  A
O727       Co744   2.037       .  S
O728        C734   1.268       .  A
O728       Co743   2.030       .  S
O729        C732   1.263       .  A
O729       Co746   1.959       .  S
O730        C731   1.263       .  A
O730       Co745   1.957       .  S
C731       C3831   1.458       .  S
C732       C1479   1.457       .  S
C733       C1647   1.504       .  S
C734       C3660   1.496       .  S
O735        C748   1.266       .  A
O735       Co743   1.967       .  S
O736        C749   1.261       .  A
O736       Co744   1.952       .  S
O737        C750   1.268       .  A
O737       Co745   2.034       .  S
O738        C751   1.269       .  A
O738       Co746   2.035       .  S
O739        C751   1.262       .  A
O739       Co744   1.978       .  S
O740        C750   1.264       .  A
O740       Co743   1.984       .  S
O741        C748   1.275       .  A
O741       Co746   2.026       .  S
O742        C749   1.275       .  A
O742       Co745   2.024       .  S
Co743       O747   2.109       .  S
Co744       O747   2.106       .  S
Co745       O747   2.113       .  S
Co746       O747   2.110       .  S
C748       C3567   1.463       .  S
C749       C1575   1.452       .  S
C750       C1212   1.500       .  S
C751        C999   1.498       .  S
O752        C760   1.264       .  A
O752       Co772   1.963       .  S
O753        C761   1.267       .  A
O753       Co773   1.970       .  S
O754        C762   1.272       .  A
O754       Co774   2.035       .  S
O755        C763   1.273       .  A
O755       Co775   2.046       .  S
O756        C762   1.268       .  A
O756       Co773   1.984       .  S
O757        C763   1.265       .  A
O757       Co772   1.979       .  S
O758        C761   1.272       .  A
O758       Co775   1.997       .  S
O759        C760   1.270       .  A
O759       Co774   2.003       .  S
C760       C3231   1.448       .  S
C761       C2415   1.466       .  S
C762        C807   1.499       .  S
C763        C927   1.500       .  S
O764        C777   1.274       .  A
O764       Co772   2.018       .  S
O765        C778   1.272       .  A
O765       Co773   2.009       .  S
O766        C779   1.266       .  A
O766       Co774   1.984       .  S
O767        C780   1.267       .  A
O767       Co775   1.991       .  S
O768        C780   1.270       .  A
O768       Co773   2.025       .  S
O769        C779   1.269       .  A
O769       Co772   2.024       .  S
O770        C777   1.261       .  A
O770       Co775   1.956       .  S
O771        C778   1.262       .  A
O771       Co774   1.955       .  S
Co772       O776   2.100       .  S
Co773       O776   2.112       .  S
Co774       O776   2.100       .  S
Co775       O776   2.101       .  S
C777       C2967   1.451       .  S
C778       C2124   1.449       .  S
C779       C3156   1.494       .  S
C780       C2244   1.499       .  S
C781        C782   1.422       .  A
C781        C786   1.423       .  A
C781        C831   1.498       .  S
C782        C783   1.423       .  A
C782       C3039   1.500       .  S
C783        C784   1.423       .  A
C783       C1599   1.496       .  S
C784        C785   1.422       .  A
C784       C1167   1.500       .  S
C785        C786   1.421       .  A
C785        C951   1.499       .  S
C786       C1956   1.495       .  S
C787        C788   1.422       .  A
C787        C792   1.426   1_455  A
C787        C804   1.505       .  S
C788        C789   1.420   1_554  A
C788       C2172   1.496       .  S
C789        C790   1.419   1_455  A
C789       C4071   1.495       .  S
C790        C791   1.424       .  A
C790       C2583   1.501       .  S
C791        C792   1.429   1_556  A
C791        C879   1.500       .  S
C792       C3255   1.501       .  S
C793        C794   1.404       .  A
C793        C798   1.406       .  A
C793        H809   1.083       .  S
C794        C795   1.405       .  A
C794        H810   1.083       .  S
C795        C805   1.415       .  A
C795        C796   1.414       .  A
C796        C802   1.410       .  A
C796        C797   1.422       .  A
C797        C799   1.413       .  A
C797        C798   1.410       .  A
C798        C806   1.412       .  A
C799        C808   1.414       .  A
C799        C800   1.405       .  A
C800        C801   1.403       .  A
C800        H811   1.083       .  S
C801        C802   1.405       .  A
C801        H812   1.083       .  S
C802        C803   1.409       .  A
C803        C804   1.410       .  A
C803        H813   1.084       .  S
C804        C805   1.409       .  A
C805        H814   1.084       .  S
C806        C807   1.412       .  A
C806        H815   1.084       .  S
C807        C808   1.411       .  A
C808        H816   1.084       .  S
C817        C818   1.404       .  A
C817        C822   1.406       .  A
C817        H833   1.083       .  S
C818        C819   1.406       .  A
C818        H834   1.083       .  S
C819        C829   1.415       .  A
C819        C820   1.413       .  A
C820        C826   1.409       .  A
C820        C821   1.421       .  A
C821        C823   1.415       .  A
C821        C822   1.410       .  A
C822        C830   1.409       .  A
C823        C832   1.413       .  A
C823        C824   1.404       .  A
C824        C825   1.403       .  A
C824        H835   1.083       .  S
C825        C826   1.406       .  A
C825        H836   1.083       .  S
C826        C827   1.409       .  A
C827        C828   1.413       .  A
C827        H837   1.084       .  S
C828        C829   1.412       .  A
C829        H838   1.084       .  S
C830        C831   1.409       .  A
C830        H839   1.084       .  S
C831        C832   1.406       .  A
C832        H840   1.084       .  S
C841        C842   1.402       .  A
C841        C846   1.404       .  A
C841        H857   1.083       .  S
C842        C843   1.405       .  A
C842        H858   1.083       .  S
C843        C853   1.406       .  A
C843        C844   1.410       .  A
C844        C850   1.414       .  A
C844        C845   1.419       .  A
C845        C847   1.409       .  A
C845        C846   1.413       .  A
C846        C854   1.411       .  A
C847        C856   1.409       .  A
C847        C848   1.406       .  A
C848        C849   1.403       .  A
C848        H859   1.083       .  S
C849        C850   1.404       .  A
C849        H860   1.083       .  S
C850        C851   1.413       .  A
C851        C852   1.409       .  A
C851        H861   1.084       .  S
C852        C853   1.409       .  A
C853        H862   1.084       .  S
C854        C855   1.409       .  A
C854        H863   1.084       .  S
C855        C856   1.413       .  A
C856        H864   1.083       .  S
C865        C866   1.404       .  A
C865        C870   1.404       .  A
C865        H881   1.083       .  S
C866        C867   1.406       .  A
C866        H882   1.083       .  S
C867        C877   1.411       .  A
C867        C868   1.410       .  A
C868        C874   1.413   1_556  A
C868        C869   1.422       .  A
C869        C871   1.410   1_556  A
C869        C870   1.414       .  A
C870        C878   1.414       .  A
C871        C880   1.409       .  A
C871        C872   1.405       .  A
C872        C873   1.403       .  A
C872        H883   1.084       .  S
C873        C874   1.405       .  A
C873        H884   1.083       .  S
C874        C875   1.415       .  A
C875        C876   1.412   1_554  A
C875        H885   1.084       .  S
C876        C877   1.414       .  A
C877        H886   1.084       .  S
C878        C879   1.407       .  A
C878        H887   1.083       .  S
C879        C880   1.409   1_556  A
C880        H888   1.084       .  S
C889        C890   1.401       .  A
C889        C894   1.404       .  A
C889        H905   1.083       .  S
C890        C891   1.404       .  A
C890        H906   1.083       .  S
C891        C901   1.410       .  A
C891        C892   1.413   1_556  A
C892        C898   1.410       .  A
C892        C893   1.420       .  A
C893        C895   1.414       .  A
C893        C894   1.410   1_554  A
C894        C902   1.406       .  A
C895        C904   1.415       .  A
C895        C896   1.405       .  A
C896        C897   1.405       .  A
C896        H907   1.083       .  S
C897        C898   1.406       .  A
C897        H908   1.083       .  S
C898        C899   1.412       .  A
C899        C900   1.413       .  A
C899        H909   1.084       .  S
C900        C901   1.409   1_554  A
C901        H910   1.084       .  S
C902        C903   1.407   1_556  A
C902        H911   1.084       .  S
C903        C904   1.409       .  A
C904        H912   1.084       .  S
C913        C914   1.405       .  A
C913        C918   1.407       .  A
C913        H929   1.083       .  S
C914        C915   1.406       .  A
C914        H930   1.083       .  S
C915        C925   1.415       .  A
C915        C916   1.414       .  A
C916        C922   1.411       .  A
C916        C917   1.421       .  A
C917        C919   1.412       .  A
C917        C918   1.411       .  A
C918        C926   1.413       .  A
C919        C928   1.410       .  A
C919        C920   1.404       .  A
C920        C921   1.401       .  A
C920        H931   1.083       .  S
C921        C922   1.404       .  A
C921        H932   1.083   1_455  S
C922        C923   1.407       .  A
C923        C924   1.408       .  A
C923        H933   1.084   1_455  S
C924        C925   1.410       .  A
C925        H934   1.083       .  S
C926        C927   1.414       .  A
C926        H935   1.084       .  S
C927        C928   1.410       .  A
C928        H936   1.084       .  S
C937        C938   1.403       .  A
C937        C942   1.404       .  A
C937        H953   1.083       .  S
C938        C939   1.406       .  A
C938        H954   1.083       .  S
C939        C949   1.409       .  A
C939        C940   1.410       .  A
C940        C946   1.413       .  A
C940        C941   1.420       .  A
C941        C943   1.410       .  A
C941        C942   1.415       .  A
C942        C950   1.413       .  A
C943        C952   1.408       .  A
C943        C944   1.405       .  A
C944        C945   1.403       .  A
C944        H955   1.083       .  S
C945        C946   1.405       .  A
C945        H956   1.083       .  S
C946        C947   1.413       .  A
C947        C948   1.411       .  A
C947        H957   1.084       .  S
C948        C949   1.413       .  A
C949        H958   1.084       .  S
C950        C951   1.407       .  A
C950        H959   1.084       .  S
C951        C952   1.408       .  A
C952        H960   1.084       .  S
C961        C962   1.403       .  A
C961        C966   1.404       .  A
C961        H977   1.083       .  S
C962        C963   1.406       .  A
C962        H978   1.083       .  S
C963        C973   1.411       .  A
C963        C964   1.410       .  A
C964        C970   1.413       .  A
C964        C965   1.422       .  A
C965        C967   1.410       .  A
C965        C966   1.414       .  A
C966        C974   1.413       .  A
C967        C976   1.410       .  A
C967        C968   1.406       .  A
C968        C969   1.404       .  A
C968        H979   1.084       .  S
C969        C970   1.405       .  A
C969        H980   1.083       .  S
C970        C971   1.414       .  A
C971        C972   1.412       .  A
C971        H981   1.084       .  S
C972        C973   1.413       .  A
C973        H982   1.084       .  S
C974        C975   1.407       .  A
C974        H983   1.084       .  S
C975        C976   1.410       .  A
C976        H984   1.084       .  S
C985        C986   1.402       .  A
C985        C990   1.405       .  A
C985       H1001   1.083       .  S
C986        C987   1.405       .  A
C986       H1002   1.083       .  S
C987        C997   1.408       .  A
C987        C988   1.411       .  A
C988        C994   1.414       .  A
C988        C989   1.421       .  A
C989        C991   1.411       .  A
C989        C990   1.412       .  A
C990        C998   1.411       .  A
C991       C1000   1.412       .  A
C991        C992   1.406       .  A
C992        C993   1.405       .  A
C992       H1003   1.083       .  S
C993        C994   1.405       .  A
C993       H1004   1.083       .  S
C994        C995   1.414       .  A
C995        C996   1.408       .  A
C995       H1005   1.084       .  S
C996        C997   1.408       .  A
C997       H1006   1.084       .  S
C998        C999   1.410       .  A
C998       H1007   1.084       .  S
C999       C1000   1.412       .  A
C1000      H1008   1.084       .  S
C1009      C1010   1.403       .  A
C1009      C1014   1.405       .  A
C1009      H1025   1.083       .  S
C1010      C1011   1.405       .  A
C1010      H1026   1.083       .  S
C1011      C1021   1.408       .  A
C1011      C1012   1.410       .  A
C1012      C1018   1.414       .  A
C1012      C1013   1.421       .  A
C1013      C1015   1.410       .  A
C1013      C1014   1.414       .  A
C1014      C1022   1.413       .  A
C1015      C1024   1.410       .  A
C1015      C1016   1.406       .  A
C1016      C1017   1.404       .  A
C1016      H1027   1.083       .  S
C1017      C1018   1.405       .  A
C1017      H1028   1.083       .  S
C1018      C1019   1.415       .  A
C1019      C1020   1.409       .  A
C1019      H1029   1.083       .  S
C1020      C1021   1.410       .  A
C1021      H1030   1.084       .  S
C1022      C1023   1.409       .  A
C1022      H1031   1.084       .  S
C1023      C1024   1.412       .  A
C1024      H1032   1.084       .  S
C1033      C1034   1.401       .  A
C1033      C1038   1.404       .  A
C1033      H1049   1.083       .  S
C1034      C1035   1.404       .  A
C1034      H1050   1.084       .  S
C1035      C1045   1.405       .  A
C1035      C1036   1.410       .  A
C1036      C1042   1.413       .  A
C1036      C1037   1.419       .  A
C1037      C1039   1.410       .  A
C1037      C1038   1.413       .  A
C1038      C1046   1.409       .  A
C1039      C1048   1.410       .  A
C1039      C1040   1.406       .  A
C1040      C1041   1.404       .  A
C1040      H1051   1.084       .  S
C1041      C1042   1.405       .  A
C1041      H1052   1.083       .  S
C1042      C1043   1.412       .  A
C1043      C1044   1.409       .  A
C1043      H1053   1.082       .  S
C1044      C1045   1.408       .  A
C1045      H1054   1.084       .  S
C1046      C1047   1.409       .  A
C1046      H1055   1.084       .  S
C1047      C1048   1.412       .  A
C1048      H1056   1.084       .  S
C1057      C1058   1.403       .  A
C1057      C1062   1.405       .  A
C1057      H1073   1.083       .  S
C1058      C1059   1.405       .  A
C1058      H1074   1.083       .  S
C1059      C1069   1.409       .  A
C1059      C1060   1.410       .  A
C1060      C1066   1.414       .  A
C1060      C1061   1.421       .  A
C1061      C1063   1.410       .  A
C1061      C1062   1.413       .  A
C1062      C1070   1.413       .  A
C1063      C1072   1.412       .  A
C1063      C1064   1.406       .  A
C1064      C1065   1.404       .  A
C1064      H1075   1.083       .  S
C1065      C1066   1.405       .  A
C1065      H1076   1.083       .  S
C1066      C1067   1.414       .  A
C1067      C1068   1.408       .  A
C1067      H1077   1.083       .  S
C1068      C1069   1.409       .  A
C1069      H1078   1.084       .  S
C1070      C1071   1.411       .  A
C1070      H1079   1.084       .  S
C1071      C1072   1.413       .  A
C1072      H1080   1.084       .  S
C1081      C1082   1.394       .  A
C1081      C1086   1.400       .  A
C1081      H1097   1.084       .  S
C1082      C1083   1.403       .  A
C1082      H1098   1.084       .  S
C1083      C1093   1.391       .  A
C1083      C1084   1.409       .  A
C1084      C1090   1.415       .  A
C1084      C1085   1.406       .  A
C1085      C1087   1.411       .  A
C1085      C1086   1.414       .  A
C1086      C1094   1.395       .  A
C1087      C1096   1.401       .  A
C1087      C1088   1.404       .  A
C1088      C1089   1.400       .  A
C1088      H1099   1.084       .  S
C1089      C1090   1.403       .  A
C1089      H1100   1.084       .  S
C1090      C1091   1.406       .  A
C1091      C1092   1.402       .  A
C1091      H1101   1.084       .  S
C1092      C1093   1.403       .  A
C1093      H1102   1.086       .  S
C1094      C1095   1.394       .  A
C1094      H1103   1.080       .  S
C1095      C1096   1.403       .  A
C1096      H1104   1.085       .  S
C1105      C1106   1.397       .  A
C1105      C1110   1.403       .  A
C1105      H1121   1.084       .  S
C1106      C1107   1.401       .  A
C1106      H1122   1.084       .  S
C1107      C1117   1.402       .  A
C1107      C1108   1.416       .  A
C1108      C1114   1.408       .  A
C1108      C1109   1.405       .  A
C1109      C1111   1.415       .  A
C1109      C1110   1.411       .  A
C1110      C1118   1.396       .  A
C1111      C1120   1.398       .  A
C1111      C1112   1.402       .  A
C1112      C1113   1.395       .  A
C1112      H1123   1.084       .  S
C1113      C1114   1.403       .  A
C1113      H1124   1.084       .  S
C1114      C1115   1.391       .  A
C1115      C1116   1.405       .  A
C1115      H1125   1.084       .  S
C1116      C1117   1.398       .  A
C1117      H1126   1.084       .  S
C1118      C1119   1.400       .  A
C1118      H1127   1.085       .  S
C1119      C1120   1.397       .  A
C1120      H1128   1.082       .  S
C1129      C1130   1.403       .  A
C1129      C1134   1.405       .  A
C1129      H1145   1.083       .  S
C1130      C1131   1.405       .  A
C1130      H1146   1.083       .  S
C1131      C1141   1.412       .  A
C1131      C1132   1.412       .  A
C1132      C1138   1.411       .  A
C1132      C1133   1.422       .  A
C1133      C1135   1.414       .  A
C1133      C1134   1.411       .  A
C1134      C1142   1.410       .  A
C1135      C1144   1.415       .  A
C1135      C1136   1.405       .  A
C1136      C1137   1.405       .  A
C1136      H1147   1.083       .  S
C1137      C1138   1.406       .  A
C1137      H1148   1.083       .  S
C1138      C1139   1.413       .  A
C1139      C1140   1.414       .  A
C1139      H1149   1.084       .  S
C1140      C1141   1.411       .  A
C1141      H1150   1.084       .  S
C1142      C1143   1.409       .  A
C1142      H1151   1.084       .  S
C1143      C1144   1.409       .  A
C1144      H1152   1.084       .  S
C1153      C1154   1.402       .  A
C1153      C1158   1.404       .  A
C1153      H1169   1.083       .  S
C1154      C1155   1.405       .  A
C1154      H1170   1.084       .  S
C1155      C1165   1.407       .  A
C1155      C1156   1.409       .  A
C1156      C1162   1.413       .  A
C1156      C1157   1.419       .  A
C1157      C1159   1.410       .  A
C1157      C1158   1.414       .  A
C1158      C1166   1.411       .  A
C1159      C1168   1.408       .  A
C1159      C1160   1.405       .  A
C1160      C1161   1.403       .  A
C1160      H1171   1.083       .  S
C1161      C1162   1.405       .  A
C1161      H1172   1.083       .  S
C1162      C1163   1.412       .  A
C1163      C1164   1.410       .  A
C1163      H1173   1.084       .  S
C1164      C1165   1.412       .  A
C1165      H1174   1.084       .  S
C1166      C1167   1.407       .  A
C1166      H1175   1.083       .  S
C1167      C1168   1.409       .  A
C1168      H1176   1.084       .  S
C1177      C1178   1.403       .  A
C1177      C1182   1.404       .  A
C1177      H1193   1.084       .  S
C1178      C1179   1.406       .  A
C1178      H1194   1.083       .  S
C1179      C1189   1.409       .  A
C1179      C1180   1.409       .  A
C1180      C1186   1.413       .  A
C1180      C1181   1.421       .  A
C1181      C1183   1.410       .  A
C1181      C1182   1.414       .  A
C1182      C1190   1.412       .  A
C1183      C1192   1.410       .  A
C1183      C1184   1.405       .  A
C1184      C1185   1.404       .  A
C1184      H1195   1.083       .  S
C1185      C1186   1.405       .  A
C1185      H1196   1.083       .  S
C1186      C1187   1.415       .  A
C1187      C1188   1.412       .  A
C1187      H1197   1.084       .  S
C1188      C1189   1.414       .  A
C1189      H1198   1.084       .  S
C1190      C1191   1.408       .  A
C1190      H1199   1.083       .  S
C1191      C1192   1.410       .  A
C1192      H1200   1.084       .  S
C1201      C1202   1.401       .  A
C1201      C1206   1.404       .  A
C1201      H1217   1.083       .  S
C1202      C1203   1.404       .  A
C1202      H1218   1.083       .  S
C1203      C1213   1.410       .  A
C1203      C1204   1.413       .  A
C1204      C1210   1.410       .  A
C1204      C1205   1.420       .  A
C1205      C1207   1.414       .  A
C1205      C1206   1.410       .  A
C1206      C1214   1.405       .  A
C1207      C1216   1.414       .  A
C1207      C1208   1.405       .  A
C1208      C1209   1.404       .  A
C1208      H1219   1.083       .  S
C1209      C1210   1.407       .  A
C1209      H1220   1.083       .  S
C1210      C1211   1.411       .  A
C1211      C1212   1.414       .  A
C1211      H1221   1.084       .  S
C1212      C1213   1.410       .  A
C1213      H1222   1.084       .  S
C1214      C1215   1.407       .  A
C1214      H1223   1.085       .  S
C1215      C1216   1.408       .  A
C1216      H1224   1.083       .  S
C1225      C1226   1.403       .  A
C1225      C1230   1.404       .  A
C1225      H1241   1.083       .  S
C1226      C1227   1.406       .  A
C1226      H1242   1.083       .  S
C1227      C1237   1.409       .  A
C1227      C1228   1.410       .  A
C1228      C1234   1.413       .  A
C1228      C1229   1.418       .  A
C1229      C1231   1.410       .  A
C1229      C1230   1.414       .  A
C1230      C1238   1.412       .  A
C1231      C1240   1.405       .  A
C1231      C1232   1.404       .  A
C1232      C1233   1.401       .  A
C1232      H1243   1.083       .  S
C1233      C1234   1.404       .  A
C1233      H1244   1.084       .  S
C1234      C1235   1.410       .  A
C1235      C1236   1.409       .  A
C1235      H1245   1.084       .  S
C1236      C1237   1.414       .  A
C1237      H1246   1.084       .  S
C1238      C1239   1.407       .  A
C1238      H1247   1.084       .  S
C1239      C1240   1.407       .  A
C1240      H1248   1.084       .  S
C1249      C1250   1.401       .  A
C1249      C1254   1.405       .  A
C1249      H1265   1.083       .  S
C1250      C1251   1.403       .  A
C1250      H1266   1.083       .  S
C1251      C1261   1.409       .  A
C1251      C1252   1.414       .  A
C1252      C1258   1.410       .  A
C1252      C1253   1.417       .  A
C1253      C1255   1.413       .  A
C1253      C1254   1.410       .  A
C1254      C1262   1.405       .  A
C1255      C1264   1.409       .  A
C1255      C1256   1.404       .  A
C1256      C1257   1.401       .  A
C1256      H1267   1.084       .  S
C1257      C1258   1.405       .  A
C1257      H1268   1.083       .  S
C1258      C1259   1.405       .  A
C1259      C1260   1.407       .  A
C1259      H1269   1.084       .  S
C1260      C1261   1.404       .  A
C1261      H1270   1.084       .  S
C1262      C1263   1.410       .  A
C1262      H1271   1.084       .  S
C1263      C1264   1.409       .  A
C1264      H1272   1.084       .  S
C1273      C1274   1.397       .  A
C1273      C1278   1.403       .  A
C1273      H1289   1.084   1_545  S
C1274      C1275   1.402       .  A
C1274      H1290   1.084       .  S
C1275      C1285   1.403       .  A
C1275      C1276   1.416       .  A
C1276      C1282   1.410       .  A
C1276      C1277   1.406       .  A
C1277      C1279   1.416       .  A
C1277      C1278   1.410       .  A
C1278      C1286   1.395       .  A
C1279      C1288   1.398       .  A
C1279      C1280   1.401       .  A
C1280      C1281   1.395       .  A
C1280      H1291   1.084       .  S
C1281      C1282   1.403       .  A
C1281      H1292   1.084       .  S
C1282      C1283   1.393       .  A
C1283      C1284   1.402       .  A
C1283      H1293   1.085       .  S
C1284      C1285   1.399       .  A
C1285      H1294   1.085       .  S
C1286      C1287   1.400       .  A
C1286      H1295   1.085   1_545  S
C1287      C1288   1.397       .  A
C1288      H1296   1.084       .  S
C1297      C1298   1.390       .  A
C1297      C1302   1.400       .  A
C1297      H1313   1.084       .  S
C1298      C1299   1.402       .  A
C1298      H1314   1.084       .  S
C1299      C1309   1.383       .  A
C1299      C1300   1.407       .  A
C1300      C1306   1.416       .  A
C1300      C1301   1.404       .  A
C1301      C1303   1.411       .  A
C1301      C1302   1.413       .  A
C1302      C1310   1.389       .  A
C1303      C1312   1.402       .  A
C1303      C1304   1.404       .  A
C1304      C1305   1.401       .  A
C1304      H1315   1.083       .  S
C1305      C1306   1.404       .  A
C1305      H1316   1.083       .  S
C1306      C1307   1.408       .  A
C1307      C1308   1.403       .  A
C1307      H1317   1.084       .  S
C1308      C1309   1.406       .  A
C1309      H1318   1.085       .  S
C1310      C1311   1.396       .  A
C1310      H1319   1.079       .  S
C1311      C1312   1.404       .  A
C1312      H1320   1.084       .  S
C1321      C1322   1.401       .  A
C1321      C1326   1.404       .  A
C1321      H1337   1.083       .  S
C1322      C1323   1.404       .  A
C1322      H1338   1.083       .  S
C1323      C1333   1.404       .  A
C1323      C1324   1.413       .  A
C1324      C1330   1.409       .  A
C1324      C1325   1.401       .  A
C1325      C1327   1.410       .  A
C1325      C1326   1.412       .  A
C1326      C1334   1.402       .  A
C1327      C1336   1.384       .  A
C1327      C1328   1.399       .  A
C1328      C1329   1.389       .  A
C1328      H1339   1.084       .  S
C1329      C1330   1.400       .  A
C1329      H1340   1.084       .  S
C1330      C1331   1.383       .  A
C1331      C1332   1.402       .  A
C1331      H1341   1.085       .  S
C1332      C1333   1.403       .  A
C1333      H1342   1.084       .  S
C1334      C1335   1.403       .  A
C1334      H1343   1.084       .  S
C1335      C1336   1.400       .  A
C1336      H1344   1.085       .  S
C1345      C1346   1.405       .  A
C1345      C1350   1.406       .  A
C1345      H1361   1.083   1_554  S
C1346      C1347   1.406       .  A
C1346      H1362   1.083       .  S
C1347      C1357   1.419       .  A
C1347      C1348   1.414       .  A
C1348      C1354   1.409       .  A
C1348      C1349   1.424       .  A
C1349      C1351   1.415       .  A
C1349      C1350   1.410       .  A
C1350      C1358   1.412       .  A
C1351      C1360   1.416       .  A
C1351      C1352   1.404       .  A
C1352      C1353   1.404       .  A
C1352      H1363   1.083       .  S
C1353      C1354   1.406       .  A
C1353      H1364   1.083       .  S
C1354      C1355   1.411       .  A
C1355      C1356   1.415       .  A
C1355      H1365   1.084       .  S
C1356      C1357   1.412       .  A
C1357      H1366   1.084       .  S
C1358      C1359   1.411       .  A
C1358      H1367   1.084   1_554  S
C1359      C1360   1.408       .  A
C1360      H1368   1.084       .  S
C1369      C1370   1.403       .  A
C1369      C1374   1.405       .  A
C1369      H1385   1.083       .  S
C1370      C1371   1.405       .  A
C1370      H1386   1.083       .  S
C1371      C1381   1.410       .  A
C1371      C1372   1.411       .  A
C1372      C1378   1.413       .  A
C1372      C1373   1.424       .  A
C1373      C1375   1.411       .  A
C1373      C1374   1.412       .  A
C1374      C1382   1.414       .  A
C1375      C1384   1.416       .  A
C1375      C1376   1.407       .  A
C1376      C1377   1.406       .  A
C1376      H1387   1.083       .  S
C1377      C1378   1.406       .  A
C1377      H1388   1.083       .  S
C1378      C1379   1.417       .  A
C1379      C1380   1.411       .  A
C1379      H1389   1.083       .  S
C1380      C1381   1.409       .  A
C1381      H1390   1.084       .  S
C1382      C1383   1.412       .  A
C1382      H1391   1.084       .  S
C1383      C1384   1.415       .  A
C1384      H1392   1.084       .  S
C1393      C1394   1.404       .  A
C1393      C1398   1.405   1_554  A
C1393      H1409   1.083       .  S
C1394      C1395   1.405       .  A
C1394      H1410   1.083   1_545  S
C1395      C1405   1.410       .  A
C1395      C1396   1.410   1_554  A
C1396      C1402   1.413       .  A
C1396      C1397   1.423       .  A
C1397      C1399   1.410       .  A
C1397      C1398   1.413       .  A
C1398      C1406   1.415       .  A
C1399      C1408   1.413       .  A
C1399      C1400   1.407       .  A
C1400      C1401   1.405       .  A
C1400      H1411   1.083       .  S
C1401      C1402   1.405       .  A
C1401      H1412   1.083       .  S
C1402      C1403   1.415       .  A
C1403      C1404   1.411       .  A
C1403      H1413   1.082       .  S
C1404      C1405   1.410   1_556  A
C1405      H1414   1.084   1_545  S
C1406      C1407   1.412       .  A
C1406      H1415   1.084   1_556  S
C1407      C1408   1.415       .  A
C1408      H1416   1.084       .  S
C1417      C1418   1.404       .  A
C1417      C1422   1.406       .  A
C1417      H1433   1.083       .  S
C1418      C1419   1.405       .  A
C1418      H1434   1.083       .  S
C1419      C1429   1.415       .  A
C1419      C1420   1.414       .  A
C1420      C1426   1.410       .  A
C1420      C1421   1.421       .  A
C1421      C1423   1.413       .  A
C1421      C1422   1.410       .  A
C1422      C1430   1.412       .  A
C1423      C1432   1.413       .  A
C1423      C1424   1.405       .  A
C1424      C1425   1.403       .  A
C1424      H1435   1.083       .  S
C1425      C1426   1.405       .  A
C1425      H1436   1.083   1_554  S
C1426      C1427   1.408       .  A
C1427      C1428   1.409       .  A
C1427      H1437   1.084   1_554  S
C1428      C1429   1.408       .  A
C1429      H1438   1.084       .  S
C1430      C1431   1.413       .  A
C1430      H1439   1.084       .  S
C1431      C1432   1.412       .  A
C1432      H1440   1.084       .  S
C1441      C1442   1.394       .  A
C1441      C1446   1.402       .  A
C1441      H1457   1.084       .  S
C1442      C1443   1.401       .  A
C1442      H1458   1.084       .  S
C1443      C1453   1.395       .  A
C1443      C1444   1.414       .  A
C1444      C1450   1.411       .  A
C1444      C1445   1.405       .  A
C1445      C1447   1.415       .  A
C1445      C1446   1.410       .  A
C1446      C1454   1.391       .  A
C1447      C1456   1.403       .  A
C1447      C1448   1.403       .  A
C1448      C1449   1.398       .  A
C1448      H1459   1.084       .  S
C1449      C1450   1.404       .  A
C1449      H1460   1.084   1_545  S
C1450      C1451   1.398       .  A
C1451      C1452   1.402       .  A
C1451      H1461   1.085   1_545  S
C1452      C1453   1.396       .  A
C1453      H1462   1.081       .  S
C1454      C1455   1.401       .  A
C1454      H1463   1.086       .  S
C1455      C1456   1.400       .  A
C1456      H1464   1.084       .  S
C1465      C1466   1.395       .  A
C1465      C1470   1.401       .  A
C1465      H1481   1.084       .  S
C1466      C1467   1.403       .  A
C1466      H1482   1.084       .  S
C1467      C1477   1.392       .  A
C1467      C1468   1.409       .  A
C1468      C1474   1.416       .  A
C1468      C1469   1.408       .  A
C1469      C1471   1.410       .  A
C1469      C1470   1.416       .  A
C1470      C1478   1.399       .  A
C1471      C1480   1.400       .  A
C1471      C1472   1.405       .  A
C1472      C1473   1.400       .  A
C1472      H1483   1.084       .  S
C1473      C1474   1.403       .  A
C1473      H1484   1.084       .  S
C1474      C1475   1.407       .  A
C1475      C1476   1.402       .  A
C1475      H1485   1.084       .  S
C1476      C1477   1.402       .  A
C1477      H1486   1.084       .  S
C1478      C1479   1.398       .  A
C1478      H1487   1.084       .  S
C1479      C1480   1.404       .  A
C1480      H1488   1.085       .  S
C1489      C1490   1.402       .  A
C1489      C1494   1.405       .  A
C1489      H1505   1.083       .  S
C1490      C1491   1.405       .  A
C1490      H1506   1.083       .  S
C1491      C1501   1.412       .  A
C1491      C1492   1.413       .  A
C1492      C1498   1.410       .  A
C1492      C1493   1.420       .  A
C1493      C1495   1.414       .  A
C1493      C1494   1.410       .  A
C1494      C1502   1.407       .  A
C1495      C1504   1.414       .  A
C1495      C1496   1.405       .  A
C1496      C1497   1.404       .  A
C1496      H1507   1.083       .  S
C1497      C1498   1.406       .  A
C1497      H1508   1.083       .  S
C1498      C1499   1.411       .  A
C1499      C1500   1.414       .  A
C1499      H1509   1.084       .  S
C1500      C1501   1.410       .  A
C1501      H1510   1.084       .  S
C1502      C1503   1.408       .  A
C1502      H1511   1.084       .  S
C1503      C1504   1.408       .  A
C1504      H1512   1.083       .  S
C1513      C1514   1.402       .  A
C1513      C1518   1.404       .  A
C1513      H1529   1.084       .  S
C1514      C1515   1.405       .  A
C1514      H1530   1.084       .  S
C1515      C1525   1.407       .  A
C1515      C1516   1.410       .  A
C1516      C1522   1.413       .  A
C1516      C1517   1.420       .  A
C1517      C1519   1.410       .  A
C1517      C1518   1.413       .  A
C1518      C1526   1.410       .  A
C1519      C1528   1.411       .  A
C1519      C1520   1.406   1_565  A
C1520      C1521   1.404       .  A
C1520      H1531   1.083       .  S
C1521      C1522   1.406   1_545  A
C1521      H1532   1.083       .  S
C1522      C1523   1.415       .  A
C1523      C1524   1.412       .  A
C1523      H1533   1.084   1_565  S
C1524      C1525   1.412       .  A
C1525      H1534   1.084       .  S
C1526      C1527   1.407       .  A
C1526      H1535   1.082       .  S
C1527      C1528   1.410       .  A
C1528      H1536   1.084   1_565  S
C1537      C1538   1.397       .  A
C1537      C1542   1.403       .  A
C1537      H1553   1.084       .  S
C1538      C1539   1.402       .  A
C1538      H1554   1.084       .  S
C1539      C1549   1.401       .  A
C1539      C1540   1.415       .  A
C1540      C1546   1.410       .  A
C1540      C1541   1.407       .  A
C1541      C1543   1.414       .  A
C1541      C1542   1.411       .  A
C1542      C1550   1.397       .  A
C1543      C1552   1.400       .  A
C1543      C1544   1.403       .  A
C1544      C1545   1.398       .  A
C1544      H1555   1.084       .  S
C1545      C1546   1.404       .  A
C1545      H1556   1.084       .  S
C1546      C1547   1.398       .  A
C1547      C1548   1.405       .  A
C1547      H1557   1.085       .  S
C1548      C1549   1.399       .  A
C1549      H1558   1.085       .  S
C1550      C1551   1.400       .  A
C1550      H1559   1.085       .  S
C1551      C1552   1.399       .  A
C1552      H1560   1.081       .  S
C1561      C1562   1.396       .  A
C1561      C1566   1.402       .  A
C1561      H1577   1.084       .  S
C1562      C1563   1.403       .  A
C1562      H1578   1.084       .  S
C1563      C1573   1.393       .  A
C1563      C1564   1.410       .  A
C1564      C1570   1.415       .  A
C1564      C1565   1.406       .  A
C1565      C1567   1.411       .  A
C1565      C1566   1.414       .  A
C1566      C1574   1.397       .  A
C1567      C1576   1.397       .  A
C1567      C1568   1.403       .  A
C1568      C1569   1.397       .  A
C1568      H1579   1.084       .  S
C1569      C1570   1.402       .  A
C1569      H1580   1.084       .  S
C1570      C1571   1.402       .  A
C1571      C1572   1.399       .  A
C1571      H1581   1.085       .  S
C1572      C1573   1.403       .  A
C1573      H1582   1.085       .  S
C1574      C1575   1.397       .  A
C1574      H1583   1.082       .  S
C1575      C1576   1.400       .  A
C1576      H1584   1.085       .  S
C1585      C1586   1.403       .  A
C1585      C1590   1.404       .  A
C1585      H1601   1.083       .  S
C1586      C1587   1.406       .  A
C1586      H1602   1.083       .  S
C1587      C1597   1.409       .  A
C1587      C1588   1.410       .  A
C1588      C1594   1.413       .  A
C1588      C1589   1.419       .  A
C1589      C1591   1.410       .  A
C1589      C1590   1.414       .  A
C1590      C1598   1.413       .  A
C1591      C1600   1.405       .  A
C1591      C1592   1.404       .  A
C1592      C1593   1.401       .  A
C1592      H1603   1.084       .  S
C1593      C1594   1.404       .  A
C1593      H1604   1.084       .  S
C1594      C1595   1.410       .  A
C1595      C1596   1.409       .  A
C1595      H1605   1.084       .  S
C1596      C1597   1.411       .  A
C1597      H1606   1.084       .  S
C1598      C1599   1.408       .  A
C1598      H1607   1.084       .  S
C1599      C1600   1.407       .  A
C1600      H1608   1.085       .  S
C1609      C1610   1.402       .  A
C1609      C1614   1.405       .  A
C1609      H1625   1.083       .  S
C1610      C1611   1.405       .  A
C1610      H1626   1.083       .  S
C1611      C1621   1.408       .  A
C1611      C1612   1.411       .  A
C1612      C1618   1.414       .  A
C1612      C1613   1.419       .  A
C1613      C1615   1.410       .  A
C1613      C1614   1.413       .  A
C1614      C1622   1.411       .  A
C1615      C1624   1.409       .  A
C1615      C1616   1.405       .  A
C1616      C1617   1.403       .  A
C1616      H1627   1.083       .  S
C1617      C1618   1.404       .  A
C1617      H1628   1.083       .  S
C1618      C1619   1.412       .  A
C1619      C1620   1.407       .  A
C1619      H1629   1.084       .  S
C1620      C1621   1.408       .  A
C1621      H1630   1.084       .  S
C1622      C1623   1.411       .  A
C1622      H1631   1.084       .  S
C1623      C1624   1.412       .  A
C1624      H1632   1.084       .  S
C1633      C1634   1.405       .  A
C1633      C1638   1.406       .  A
C1633      H1649   1.083       .  S
C1634      C1635   1.405       .  A
C1634      H1650   1.083       .  S
C1635      C1645   1.415       .  A
C1635      C1636   1.414       .  A
C1636      C1642   1.410       .  A
C1636      C1637   1.422       .  A
C1637      C1639   1.413       .  A
C1637      C1638   1.410       .  A
C1638      C1646   1.413       .  A
C1639      C1648   1.413       .  A
C1639      C1640   1.405       .  A
C1640      C1641   1.403       .  A
C1640      H1651   1.083       .  S
C1641      C1642   1.405       .  A
C1641      H1652   1.084   1_565  S
C1642      C1643   1.408       .  A
C1643      C1644   1.408       .  A
C1643      H1653   1.084   1_565  S
C1644      C1645   1.408       .  A
C1645      H1654   1.083       .  S
C1646      C1647   1.414       .  A
C1646      H1655   1.084       .  S
C1647      C1648   1.412       .  A
C1648      H1656   1.084       .  S
C1657      C1658   1.401       .  A
C1657      C1662   1.404       .  A
C1657      H1673   1.083   1_545  S
C1658      C1659   1.404       .  A
C1658      H1674   1.083       .  S
C1659      C1669   1.411       .  A
C1659      C1660   1.414       .  A
C1660      C1666   1.409       .  A
C1660      C1661   1.419       .  A
C1661      C1663   1.414       .  A
C1661      C1662   1.410       .  A
C1662      C1670   1.405       .  A
C1663      C1672   1.413       .  A
C1663      C1664   1.405       .  A
C1664      C1665   1.403       .  A
C1664      H1675   1.083       .  S
C1665      C1666   1.406       .  A
C1665      H1676   1.084       .  S
C1666      C1667   1.408       .  A
C1667      C1668   1.413       .  A
C1667      H1677   1.083       .  S
C1668      C1669   1.408       .  A
C1669      H1678   1.084       .  S
C1670      C1671   1.408       .  A
C1670      H1679   1.084   1_545  S
C1671      C1672   1.410       .  A
C1672      H1680   1.083       .  S
C1681      C1682   1.403       .  A
C1681      C1686   1.405   1_565  A
C1681      H1697   1.083       .  S
C1682      C1683   1.405   1_565  A
C1682      H1698   1.083       .  S
C1683      C1693   1.408       .  A
C1683      C1684   1.410       .  A
C1684      C1690   1.414       .  A
C1684      C1685   1.421       .  A
C1685      C1687   1.409       .  A
C1685      C1686   1.413       .  A
C1686      C1694   1.413       .  A
C1687      C1696   1.411       .  A
C1687      C1688   1.406       .  A
C1688      C1689   1.404       .  A
C1688      H1699   1.083       .  S
C1689      C1690   1.405       .  A
C1689      H1700   1.083       .  S
C1690      C1691   1.414       .  A
C1691      C1692   1.409       .  A
C1691      H1701   1.083       .  S
C1692      C1693   1.408       .  A
C1693      H1702   1.084   1_545  S
C1694      C1695   1.410       .  A
C1694      H1703   1.084   1_545  S
C1695      C1696   1.414       .  A
C1696      H1704   1.083       .  S
C1705      C1706   1.404       .  A
C1705      C1710   1.406       .  A
C1705      H1721   1.083       .  S
C1706      C1707   1.405       .  A
C1706      H1722   1.083       .  S
C1707      C1717   1.414       .  A
C1707      C1708   1.413       .  A
C1708      C1714   1.410       .  A
C1708      C1709   1.423       .  A
C1709      C1711   1.413       .  A
C1709      C1710   1.410       .  A
C1710      C1718   1.412       .  A
C1711      C1720   1.417       .  A
C1711      C1712   1.406       .  A
C1712      C1713   1.405       .  A
C1712      H1723   1.083       .  S
C1713      C1714   1.406       .  A
C1713      H1724   1.083       .  S
C1714      C1715   1.413       .  A
C1715      C1716   1.412       .  A
C1715      H1725   1.084       .  S
C1716      C1717   1.410       .  A
C1717      H1726   1.084       .  S
C1718      C1719   1.413       .  A
C1718      H1727   1.082       .  S
C1719      C1720   1.413       .  A
C1720      H1728   1.084       .  S
C1729      C1730   1.395       .  A
C1729      C1734   1.401       .  A
C1729      H1745   1.084       .  S
C1730      C1731   1.403       .  A
C1730      H1746   1.084       .  S
C1731      C1741   1.391       .  A
C1731      C1732   1.409       .  A
C1732      C1738   1.417       .  A
C1732      C1733   1.404       .  A
C1733      C1735   1.409       .  A
C1733      C1734   1.416       .  A
C1734      C1742   1.399       .  A
C1735      C1744   1.393       .  A
C1735      C1736   1.403       .  A
C1736      C1737   1.396       .  A
C1736      H1747   1.083       .  S
C1737      C1738   1.402       .  A
C1737      H1748   1.084       .  S
C1738      C1739   1.401       .  A
C1739      C1740   1.397       .  A
C1739      H1749   1.085       .  S
C1740      C1741   1.401       .  A
C1741      H1750   1.084       .  S
C1742      C1743   1.396       .  A
C1742      H1751   1.085       .  S
C1743      C1744   1.400       .  A
C1744      H1752   1.083       .  S
C1753      C1754   1.395       .  A
C1753      C1758   1.402       .  A
C1753      H1769   1.084       .  S
C1754      C1755   1.403       .  A
C1754      H1770   1.084       .  S
C1755      C1765   1.393       .  A
C1755      C1756   1.410       .  A
C1756      C1762   1.415       .  A
C1756      C1757   1.407       .  A
C1757      C1759   1.411       .  A
C1757      C1758   1.414       .  A
C1758      C1766   1.398       .  A
C1759      C1768   1.400       .  A
C1759      C1760   1.404       .  A
C1760      C1761   1.399       .  A
C1760      H1771   1.084       .  S
C1761      C1762   1.403       .  A
C1761      H1772   1.084       .  S
C1762      C1763   1.404       .  A
C1763      C1764   1.400       .  A
C1763      H1773   1.084       .  S
C1764      C1765   1.404       .  A
C1765      H1774   1.086       .  S
C1766      C1767   1.397       .  A
C1766      H1775   1.081       .  S
C1767      C1768   1.403       .  A
C1768      H1776   1.085       .  S
C1777      C1778   1.397       .  A
C1777      C1782   1.402       .  A
C1777      H1793   1.084       .  S
C1778      C1779   1.403       .  A
C1778      H1794   1.084   1_545  S
C1779      C1789   1.396       .  A
C1779      C1780   1.411       .  A
C1780      C1786   1.415       .  A
C1780      C1781   1.404       .  A
C1781      C1783   1.410       .  A
C1781      C1782   1.416       .  A
C1782      C1790   1.401       .  A
C1783      C1792   1.392       .  A
C1783      C1784   1.402       .  A
C1784      C1785   1.394       .  A
C1784      H1795   1.084       .  S
C1785      C1786   1.401       .  A
C1785      H1796   1.084       .  S
C1786      C1787   1.396       .  A
C1787      C1788   1.396       .  A
C1787      H1797   1.083       .  S
C1788      C1789   1.401       .  A
C1789      H1798   1.085   1_545  S
C1790      C1791   1.398       .  A
C1790      H1799   1.085       .  S
C1791      C1792   1.401       .  A
C1792      H1800   1.085       .  S
C1801      C1802   1.402       .  A
C1801      C1806   1.405       .  A
C1801      H1817   1.083       .  S
C1802      C1803   1.404       .  A
C1802      H1818   1.083       .  S
C1803      C1813   1.411       .  A
C1803      C1804   1.414       .  A
C1804      C1810   1.411   1_545  A
C1804      C1805   1.420       .  A
C1805      C1807   1.413   1_545  A
C1805      C1806   1.411       .  A
C1806      C1814   1.409       .  A
C1807      C1816   1.413       .  A
C1807      C1808   1.406       .  A
C1808      C1809   1.404       .  A
C1808      H1819   1.084       .  S
C1809      C1810   1.406       .  A
C1809      H1820   1.083       .  S
C1810      C1811   1.409       .  A
C1811      C1812   1.410   1_565  A
C1811      H1821   1.084       .  S
C1812      C1813   1.406       .  A
C1813      H1822   1.084       .  S
C1814      C1815   1.409       .  A
C1814      H1823   1.084       .  S
C1815      C1816   1.412   1_545  A
C1816      H1824   1.084       .  S
C1825      C1826   1.406       .  A
C1825      C1830   1.406       .  A
C1825      H1841   1.083       .  S
C1826      C1827   1.407       .  A
C1826      H1842   1.083       .  S
C1827      C1837   1.414       .  A
C1827      C1828   1.411       .  A
C1828      C1834   1.412   1_565  A
C1828      C1829   1.419       .  A
C1829      C1831   1.410   1_565  A
C1829      C1830   1.414       .  A
C1830      C1838   1.416       .  A
C1831      C1840   1.403       .  A
C1831      C1832   1.403       .  A
C1832      C1833   1.399       .  A
C1832      H1843   1.083       .  S
C1833      C1834   1.403       .  A
C1833      H1844   1.084       .  S
C1834      C1835   1.406       .  A
C1835      C1836   1.407   1_545  A
C1835      H1845   1.084       .  S
C1836      C1837   1.414       .  A
C1837      H1846   1.084       .  S
C1838      C1839   1.411       .  A
C1838      H1847   1.084       .  S
C1839      C1840   1.406   1_565  A
C1840      H1848   1.085       .  S
C1849      C1850   1.397       .  A
C1849      C1854   1.403       .  A
C1849      H1865   1.084       .  S
C1850      C1851   1.402       .  A
C1850      H1866   1.084       .  S
C1851      C1861   1.400       .  A
C1851      C1852   1.415       .  A
C1852      C1858   1.411       .  A
C1852      C1853   1.407       .  A
C1853      C1855   1.415       .  A
C1853      C1854   1.410       .  A
C1854      C1862   1.395       .  A
C1855      C1864   1.401       .  A
C1855      C1856   1.402       .  A
C1856      C1857   1.397       .  A
C1856      H1867   1.084       .  S
C1857      C1858   1.403       .  A
C1857      H1868   1.084       .  S
C1858      C1859   1.398       .  A
C1859      C1860   1.401       .  A
C1859      H1869   1.085       .  S
C1860      C1861   1.399       .  A
C1861      H1870   1.083       .  S
C1862      C1863   1.403       .  A
C1862      H1871   1.085       .  S
C1863      C1864   1.398       .  A
C1864      H1872   1.085       .  S
C1873      C1874   1.397       .  A
C1873      C1878   1.403       .  A
C1873      H1889   1.084       .  S
C1874      C1875   1.402       .  A
C1874      H1890   1.084       .  S
C1875      C1885   1.402       .  A
C1875      C1876   1.416       .  A
C1876      C1882   1.410       .  A
C1876      C1877   1.405       .  A
C1877      C1879   1.416       .  A
C1877      C1878   1.411       .  A
C1878      C1886   1.395       .  A
C1879      C1888   1.397       .  A
C1879      C1880   1.401       .  A
C1880      C1881   1.395       .  A
C1880      H1891   1.084       .  S
C1881      C1882   1.403       .  A
C1881      H1892   1.084       .  S
C1882      C1883   1.392       .  A
C1883      C1884   1.402       .  A
C1883      H1893   1.086       .  S
C1884      C1885   1.399       .  A
C1885      H1894   1.085       .  S
C1886      C1887   1.400       .  A
C1886      H1895   1.085       .  S
C1887      C1888   1.396       .  A
C1888      H1896   1.083       .  S
C1897      C1898   1.399       .  A
C1897      C1902   1.404       .  A
C1897      H1913   1.084       .  S
C1898      C1899   1.403       .  A
C1898      H1914   1.084       .  S
C1899      C1909   1.404       .  A
C1899      C1900   1.416       .  A
C1900      C1906   1.409       .  A
C1900      C1901   1.406       .  A
C1901      C1903   1.416       .  A
C1901      C1902   1.410       .  A
C1902      C1910   1.398       .  A
C1903      C1912   1.398       .  A
C1903      C1904   1.401       .  A
C1904      C1905   1.395       .  A
C1904      H1915   1.084       .  S
C1905      C1906   1.403       .  A
C1905      H1916   1.084       .  S
C1906      C1907   1.392       .  A
C1907      C1908   1.402       .  A
C1907      H1917   1.086       .  S
C1908      C1909   1.400       .  A
C1909      H1918   1.084       .  S
C1910      C1911   1.402       .  A
C1910      H1919   1.084       .  S
C1911      C1912   1.397       .  A
C1912      H1920   1.084       .  S
C1921      C1922   1.397       .  A
C1921      C1926   1.403       .  A
C1921      H1937   1.084       .  S
C1922      C1923   1.402       .  A
C1922      H1938   1.084       .  S
C1923      C1933   1.401       .  A
C1923      C1924   1.416       .  A
C1924      C1930   1.410       .  A
C1924      C1925   1.405       .  A
C1925      C1927   1.415       .  A
C1925      C1926   1.411       .  A
C1926      C1934   1.396       .  A
C1927      C1936   1.397       .  A
C1927      C1928   1.401       .  A
C1928      C1929   1.395       .  A
C1928      H1939   1.084       .  S
C1929      C1930   1.403       .  A
C1929      H1940   1.084       .  S
C1930      C1931   1.392       .  A
C1931      C1932   1.402       .  A
C1931      H1941   1.085       .  S
C1932      C1933   1.398       .  A
C1933      H1942   1.085       .  S
C1934      C1935   1.401       .  A
C1934      H1943   1.085       .  S
C1935      C1936   1.397       .  A
C1936      H1944   1.083       .  S
C1945      C1946   1.402       .  A
C1945      C1950   1.406       .  A
C1945      H1961   1.083       .  S
C1946      C1947   1.404       .  A
C1946      H1962   1.083       .  S
C1947      C1957   1.412       .  A
C1947      C1948   1.415       .  A
C1948      C1954   1.410       .  A
C1948      C1949   1.419       .  A
C1949      C1951   1.414       .  A
C1949      C1950   1.408       .  A
C1950      C1958   1.407       .  A
C1951      C1960   1.414       .  A
C1951      C1952   1.405       .  A
C1952      C1953   1.403       .  A
C1952      H1963   1.083       .  S
C1953      C1954   1.405       .  A
C1953      H1964   1.083       .  S
C1954      C1955   1.407       .  A
C1955      C1956   1.408       .  A
C1955      H1965   1.084       .  S
C1956      C1957   1.406       .  A
C1957      H1966   1.084       .  S
C1958      C1959   1.414       .  A
C1958      H1967   1.084       .  S
C1959      C1960   1.410       .  A
C1960      H1968   1.084       .  S
C1969      C1970   1.402       .  A
C1969      C1974   1.404       .  A
C1969      H1985   1.084       .  S
C1970      C1971   1.405       .  A
C1970      H1986   1.083       .  S
C1971      C1981   1.408       .  A
C1971      C1972   1.411       .  A
C1972      C1978   1.414       .  A
C1972      C1973   1.421       .  A
C1973      C1975   1.411       .  A
C1973      C1974   1.412       .  A
C1974      C1982   1.410       .  A
C1975      C1984   1.413       .  A
C1975      C1976   1.406       .  A
C1976      C1977   1.405       .  A
C1976      H1987   1.083       .  S
C1977      C1978   1.405       .  A
C1977      H1988   1.083       .  S
C1978      C1979   1.415       .  A
C1979      C1980   1.409       .  A
C1979      H1989   1.084       .  S
C1980      C1981   1.409       .  A
C1981      H1990   1.084       .  S
C1982      C1983   1.410       .  A
C1982      H1991   1.084       .  S
C1983      C1984   1.413       .  A
C1984      H1992   1.084       .  S
C1993      C1994   1.404       .  A
C1993      C1998   1.406       .  A
C1993      H2009   1.083       .  S
C1994      C1995   1.405       .  A
C1994      H2010   1.083       .  S
C1995      C2005   1.414       .  A
C1995      C1996   1.414       .  A
C1996      C2002   1.411       .  A
C1996      C1997   1.420       .  A
C1997      C1999   1.413       .  A
C1997      C1998   1.410       .  A
C1998      C2006   1.411       .  A
C1999      C2008   1.409       .  A
C1999      C2000   1.404       .  A
C2000      C2001   1.401       .  A
C2000      H2011   1.084       .  S
C2001      C2002   1.404       .  A
C2001      H2012   1.083       .  S
C2002      C2003   1.406       .  A
C2003      C2004   1.407       .  A
C2003      H2013   1.084       .  S
C2004      C2005   1.408       .  A
C2005      H2014   1.084       .  S
C2006      C2007   1.413       .  A
C2006      H2015   1.084       .  S
C2007      C2008   1.409       .  A
C2008      H2016   1.084       .  S
C2017      C2018   1.403       .  A
C2017      C2022   1.406       .  A
C2017      H2033   1.083       .  S
C2018      C2019   1.405       .  A
C2018      H2034   1.083       .  S
C2019      C2029   1.413       .  A
C2019      C2020   1.414       .  A
C2020      C2026   1.409       .  A
C2020      C2021   1.419       .  A
C2021      C2023   1.414       .  A
C2021      C2022   1.410       .  A
C2022      C2030   1.408       .  A
C2023      C2032   1.411       .  A
C2023      C2024   1.404       .  A
C2024      C2025   1.402       .  A
C2024      H2035   1.083       .  S
C2025      C2026   1.405       .  A
C2025      H2036   1.084       .  S
C2026      C2027   1.406       .  A
C2027      C2028   1.412       .  A
C2027      H2037   1.084       .  S
C2028      C2029   1.410       .  A
C2029      H2038   1.084       .  S
C2030      C2031   1.410       .  A
C2030      H2039   1.084       .  S
C2031      C2032   1.407       .  A
C2032      H2040   1.083       .  S
C2041      C2042   1.405       .  A
C2041      C2046   1.407       .  A
C2041      H2057   1.083       .  S
C2042      C2043   1.406       .  A
C2042      H2058   1.084       .  S
C2043      C2053   1.415       .  A
C2043      C2044   1.413       .  A
C2044      C2050   1.411       .  A
C2044      C2045   1.423       .  A
C2045      C2047   1.412       .  A
C2045      C2046   1.411       .  A
C2046      C2054   1.415       .  A
C2047      C2056   1.413       .  A
C2047      C2048   1.405       .  A
C2048      C2049   1.403       .  A
C2048      H2059   1.083       .  S
C2049      C2050   1.405       .  A
C2049      H2060   1.083       .  S
C2050      C2051   1.410       .  A
C2051      C2052   1.411       .  A
C2051      H2061   1.084       .  S
C2052      C2053   1.412       .  A
C2053      H2062   1.082       .  S
C2054      C2055   1.415       .  A
C2054      H2063   1.084       .  S
C2055      C2056   1.412       .  A
C2056      H2064   1.084       .  S
C2065      C2066   1.404       .  A
C2065      C2070   1.405       .  A
C2065      H2081   1.083       .  S
C2066      C2067   1.405       .  A
C2066      H2082   1.083       .  S
C2067      C2077   1.409       .  A
C2067      C2068   1.410       .  A
C2068      C2074   1.415       .  A
C2068      C2069   1.422       .  A
C2069      C2071   1.409       .  A
C2069      C2070   1.413       .  A
C2070      C2078   1.415       .  A
C2071      C2080   1.411       .  A
C2071      C2072   1.406       .  A
C2072      C2073   1.404       .  A
C2072      H2083   1.083       .  S
C2073      C2074   1.404       .  A
C2073      H2084   1.083       .  S
C2074      C2075   1.415       .  A
C2075      C2076   1.408       .  A
C2075      H2085   1.084       .  S
C2076      C2077   1.409       .  A
C2077      H2086   1.084       .  S
C2078      C2079   1.412       .  A
C2078      H2087   1.084       .  S
C2079      C2080   1.414       .  A
C2080      H2088   1.084       .  S
C2089      C2090   1.398       .  A
C2089      C2094   1.402       .  A
C2089      H2105   1.084       .  S
C2090      C2091   1.404       .  A
C2090      H2106   1.084       .  S
C2091      C2101   1.397       .  A
C2091      C2092   1.411       .  A
C2092      C2098   1.415       .  A
C2092      C2093   1.404       .  A
C2093      C2095   1.409       .  A
C2093      C2094   1.416       .  A
C2094      C2102   1.402       .  A
C2095      C2104   1.390       .  A
C2095      C2096   1.403       .  A
C2096      C2097   1.394       .  A
C2096      H2107   1.084       .  S
C2097      C2098   1.401       .  A
C2097      H2108   1.084       .  S
C2098      C2099   1.396       .  A
C2099      C2100   1.396       .  A
C2099      H2109   1.083       .  S
C2100      C2101   1.401       .  A
C2101      H2110   1.085       .  S
C2102      C2103   1.399       .  A
C2102      H2111   1.084       .  S
C2103      C2104   1.401       .  A
C2104      H2112   1.084       .  S
C2113      C2114   1.396       .  A
C2113      C2118   1.403       .  A
C2113      H2129   1.084       .  S
C2114      C2115   1.401       .  A
C2114      H2130   1.084       .  S
C2115      C2125   1.399       .  A
C2115      C2116   1.415       .  A
C2116      C2122   1.410       .  A
C2116      C2117   1.403       .  A
C2117      C2119   1.415       .  A
C2117      C2118   1.411       .  A
C2118      C2126   1.395       .  A
C2119      C2128   1.397       .  A
C2119      C2120   1.402       .  A
C2120      C2121   1.395       .  A
C2120      H2131   1.084       .  S
C2121      C2122   1.403       .  A
C2121      H2132   1.084       .  S
C2122      C2123   1.392       .  A
C2123      C2124   1.401       .  A
C2123      H2133   1.086       .  S
C2124      C2125   1.397       .  A
C2125      H2134   1.085       .  S
C2126      C2127   1.399       .  A
C2126      H2135   1.085       .  S
C2127      C2128   1.397       .  A
C2128      H2136   1.082       .  S
C2137      C2138   1.395       .  A
C2137      C2142   1.401       .  A
C2137      H2153   1.084       .  S
C2138      C2139   1.403       .  A
C2138      H2154   1.084       .  S
C2139      C2149   1.393       .  A
C2139      C2140   1.410       .  A
C2140      C2146   1.416       .  A
C2140      C2141   1.406       .  A
C2141      C2143   1.410       .  A
C2141      C2142   1.415       .  A
C2142      C2150   1.399       .  A
C2143      C2152   1.397       .  A
C2143      C2144   1.404       .  A
C2144      C2145   1.398       .  A
C2144      H2155   1.084       .  S
C2145      C2146   1.402       .  A
C2145      H2156   1.084       .  S
C2146      C2147   1.402       .  A
C2147      C2148   1.399       .  A
C2147      H2157   1.085       .  S
C2148      C2149   1.401       .  A
C2149      H2158   1.086       .  S
C2150      C2151   1.397       .  A
C2150      H2159   1.084       .  S
C2151      C2152   1.402       .  A
C2152      H2160   1.084       .  S
C2161      C2162   1.403       .  A
C2161      C2166   1.405   1_556  A
C2161      H2177   1.083       .  S
C2162      C2163   1.405   1_556  A
C2162      H2178   1.084       .  S
C2163      C2173   1.408   1_554  A
C2163      C2164   1.410       .  A
C2164      C2170   1.414       .  A
C2164      C2165   1.419       .  A
C2165      C2167   1.410       .  A
C2165      C2166   1.413       .  A
C2166      C2174   1.412       .  A
C2167      C2176   1.409       .  A
C2167      C2168   1.405       .  A
C2168      C2169   1.402       .  A
C2168      H2179   1.083       .  S
C2169      C2170   1.404       .  A
C2169      H2180   1.083       .  S
C2170      C2171   1.411       .  A
C2171      C2172   1.406       .  A
C2171      H2181   1.084       .  S
C2172      C2173   1.408   1_554  A
C2173      H2182   1.084       .  S
C2174      C2175   1.412       .  A
C2174      H2183   1.084   1_554  S
C2175      C2176   1.411       .  A
C2176      H2184   1.084       .  S
C2185      C2186   1.403       .  A
C2185      C2190   1.405       .  A
C2185      H2201   1.083       .  S
C2186      C2187   1.405       .  A
C2186      H2202   1.084       .  S
C2187      C2197   1.409       .  A
C2187      C2188   1.411   1_554  A
C2188      C2194   1.414       .  A
C2188      C2189   1.423       .  A
C2189      C2191   1.411       .  A
C2189      C2190   1.413   1_556  A
C2190      C2198   1.413       .  A
C2191      C2200   1.416       .  A
C2191      C2192   1.407       .  A
C2192      C2193   1.406       .  A
C2192      H2203   1.083       .  S
C2193      C2194   1.406       .  A
C2193      H2204   1.083       .  S
C2194      C2195   1.418       .  A
C2195      C2196   1.411       .  A
C2195      H2205   1.084       .  S
C2196      C2197   1.409   1_556  A
C2197      H2206   1.084       .  S
C2198      C2199   1.411   1_554  A
C2198      H2207   1.084       .  S
C2199      C2200   1.414       .  A
C2200      H2208   1.084       .  S
C2209      C2210   1.403       .  A
C2209      C2214   1.405       .  A
C2209      H2225   1.083       .  S
C2210      C2211   1.405       .  A
C2210      H2226   1.083       .  S
C2211      C2221   1.408       .  A
C2211      C2212   1.410       .  A
C2212      C2218   1.414       .  A
C2212      C2213   1.421       .  A
C2213      C2215   1.410       .  A
C2213      C2214   1.413       .  A
C2214      C2222   1.413       .  A
C2215      C2224   1.411       .  A
C2215      C2216   1.406       .  A
C2216      C2217   1.404       .  A
C2216      H2227   1.083       .  S
C2217      C2218   1.404       .  A
C2217      H2228   1.083       .  S
C2218      C2219   1.413       .  A
C2219      C2220   1.407       .  A
C2219      H2229   1.083       .  S
C2220      C2221   1.408       .  A
C2221      H2230   1.084       .  S
C2222      C2223   1.411       .  A
C2222      H2231   1.084       .  S
C2223      C2224   1.413       .  A
C2224      H2232   1.084       .  S
C2233      C2234   1.403       .  A
C2233      C2238   1.406       .  A
C2233      H2249   1.083       .  S
C2234      C2235   1.405       .  A
C2234      H2250   1.083       .  S
C2235      C2245   1.414       .  A
C2235      C2236   1.414       .  A
C2236      C2242   1.409       .  A
C2236      C2237   1.419       .  A
C2237      C2239   1.414       .  A
C2237      C2238   1.410       .  A
C2238      C2246   1.408       .  A
C2239      C2248   1.411       .  A
C2239      C2240   1.403       .  A
C2240      C2241   1.402       .  A
C2240      H2251   1.084       .  S
C2241      C2242   1.406       .  A
C2241      H2252   1.083       .  S
C2242      C2243   1.407       .  A
C2243      C2244   1.413       .  A
C2243      H2253   1.084       .  S
C2244      C2245   1.411       .  A
C2245      H2254   1.084       .  S
C2246      C2247   1.410       .  A
C2246      H2255   1.084       .  S
C2247      C2248   1.406       .  A
C2248      H2256   1.083       .  S
C2257      C2258   1.402       .  A
C2257      C2262   1.404       .  A
C2257      H2273   1.083       .  S
C2258      C2259   1.405       .  A
C2258      H2274   1.083       .  S
C2259      C2269   1.407       .  A
C2259      C2260   1.410       .  A
C2260      C2266   1.415       .  A
C2260      C2261   1.421       .  A
C2261      C2263   1.410       .  A
C2261      C2262   1.413       .  A
C2262      C2270   1.412       .  A
C2263      C2272   1.411       .  A
C2263      C2264   1.406       .  A
C2264      C2265   1.404       .  A
C2264      H2275   1.083       .  S
C2265      C2266   1.405       .  A
C2265      H2276   1.083       .  S
C2266      C2267   1.415       .  A
C2267      C2268   1.408       .  A
C2267      H2277   1.084       .  S
C2268      C2269   1.408       .  A
C2269      H2278   1.084       .  S
C2270      C2271   1.410       .  A
C2270      H2279   1.084       .  S
C2271      C2272   1.414       .  A
C2272      H2280   1.084       .  S
C2281      C2282   1.403       .  A
C2281      C2286   1.404       .  A
C2281      H2297   1.083       .  S
C2282      C2283   1.405       .  A
C2282      H2298   1.083       .  S
C2283      C2293   1.408       .  A
C2283      C2284   1.410       .  A
C2284      C2290   1.414       .  A
C2284      C2285   1.419       .  A
C2285      C2287   1.408       .  A
C2285      C2286   1.414       .  A
C2286      C2294   1.414       .  A
C2287      C2296   1.405       .  A
C2287      C2288   1.406       .  A
C2288      C2289   1.402       .  A
C2288      H2299   1.084       .  S
C2289      C2290   1.404       .  A
C2289      H2300   1.083       .  S
C2290      C2291   1.411       .  A
C2291      C2292   1.407       .  A
C2291      H2301   1.083       .  S
C2292      C2293   1.409       .  A
C2293      H2302   1.084       .  S
C2294      C2295   1.409       .  A
C2294      H2303   1.084       .  S
C2295      C2296   1.413       .  A
C2296      H2304   1.083       .  S
C2305      C2306   1.404       .  A
C2305      C2310   1.405       .  A
C2305      H2321   1.083       .  S
C2306      C2307   1.406       .  A
C2306      H2322   1.083       .  S
C2307      C2317   1.411       .  A
C2307      C2308   1.410       .  A
C2308      C2314   1.413       .  A
C2308      C2309   1.423       .  A
C2309      C2311   1.410       .  A
C2309      C2310   1.414       .  A
C2310      C2318   1.415       .  A
C2311      C2320   1.411       .  A
C2311      C2312   1.406       .  A
C2312      C2313   1.404       .  A
C2312      H2323   1.083       .  S
C2313      C2314   1.405       .  A
C2313      H2324   1.083       .  S
C2314      C2315   1.415       .  A
C2315      C2316   1.411       .  A
C2315      H2325   1.084       .  S
C2316      C2317   1.412       .  A
C2317      H2326   1.084       .  S
C2318      C2319   1.409       .  A
C2318      H2327   1.084       .  S
C2319      C2320   1.411       .  A
C2320      H2328   1.084       .  S
C2329      C2330   1.407       .  A
C2329      C2334   1.406       .  A
C2329      H2345   1.083       .  S
C2330      C2331   1.407       .  A
C2330      H2346   1.083       .  S
C2331      C2341   1.416       .  A
C2331      C2332   1.411       .  A
C2332      C2338   1.412       .  A
C2332      C2333   1.422       .  A
C2333      C2335   1.411       .  A
C2333      C2334   1.414       .  A
C2334      C2342   1.417       .  A
C2335      C2344   1.407       .  A
C2335      C2336   1.404       .  A
C2336      C2337   1.401       .  A
C2336      H2347   1.083       .  S
C2337      C2338   1.404       .  A
C2337      H2348   1.083       .  S
C2338      C2339   1.410       .  A
C2339      C2340   1.411       .  A
C2339      H2349   1.084       .  S
C2340      C2341   1.415       .  A
C2341      H2350   1.084       .  S
C2342      C2343   1.411       .  A
C2342      H2351   1.083       .  S
C2343      C2344   1.407       .  A
C2344      H2352   1.084       .  S
C2353      C2354   1.395       .  A
C2353      C2358   1.401       .  A
C2353      H2369   1.084       .  S
C2354      C2355   1.402       .  A
C2354      H2370   1.084       .  S
C2355      C2365   1.393       .  A
C2355      C2356   1.410       .  A
C2356      C2362   1.415       .  A
C2356      C2357   1.405       .  A
C2357      C2359   1.411       .  A
C2357      C2358   1.415       .  A
C2358      C2366   1.398       .  A
C2359      C2368   1.396       .  A
C2359      C2360   1.403       .  A
C2360      C2361   1.397       .  A
C2360      H2371   1.084       .  S
C2361      C2362   1.402       .  A
C2361      H2372   1.084       .  S
C2362      C2363   1.401       .  A
C2363      C2364   1.399       .  A
C2363      H2373   1.085       .  S
C2364      C2365   1.400       .  A
C2365      H2374   1.085       .  S
C2366      C2367   1.397       .  A
C2366      H2375   1.084       .  S
C2367      C2368   1.401       .  A
C2368      H2376   1.085       .  S
C2377      C2378   1.396       .  A
C2377      C2382   1.403       .  A
C2377      H2393   1.084       .  S
C2378      C2379   1.401       .  A
C2378      H2394   1.084       .  S
C2379      C2389   1.400       .  A
C2379      C2380   1.416       .  A
C2380      C2386   1.410       .  A
C2380      C2381   1.404       .  A
C2381      C2383   1.415       .  A
C2381      C2382   1.411       .  A
C2382      C2390   1.394       .  A
C2383      C2392   1.397       .  A
C2383      C2384   1.401       .  A
C2384      C2385   1.395       .  A
C2384      H2395   1.084       .  S
C2385      C2386   1.403       .  A
C2385      H2396   1.084       .  S
C2386      C2387   1.392       .  A
C2387      C2388   1.402       .  A
C2387      H2397   1.085       .  S
C2388      C2389   1.397       .  A
C2389      H2398   1.085       .  S
C2390      C2391   1.399       .  A
C2390      H2399   1.085       .  S
C2391      C2392   1.397       .  A
C2392      H2400   1.084       .  S
C2401      C2402   1.402       .  A
C2401      C2406   1.405       .  A
C2401      H2417   1.083       .  S
C2402      C2403   1.404       .  A
C2402      H2418   1.083   1_455  S
C2403      C2413   1.408       .  A
C2403      C2404   1.414       .  A
C2404      C2410   1.409       .  A
C2404      C2405   1.405       .  A
C2405      C2407   1.410       .  A
C2405      C2406   1.412       .  A
C2406      C2414   1.406       .  A
C2407      C2416   1.387       .  A
C2407      C2408   1.400       .  A
C2408      C2409   1.390       .  A
C2408      H2419   1.084       .  S
C2409      C2410   1.400       .  A
C2409      H2420   1.084       .  S
C2410      C2411   1.385       .  A
C2411      C2412   1.403       .  A
C2411      H2421   1.085       .  S
C2412      C2413   1.405       .  A
C2413      H2422   1.084   1_455  S
C2414      C2415   1.405       .  A
C2414      H2423   1.084       .  S
C2415      C2416   1.403       .  A
C2416      H2424   1.085       .  S
C2425      C2426   1.402       .  A
C2425      C2430   1.405       .  A
C2425      H2441   1.083       .  S
C2426      C2427   1.405       .  A
C2426      H2442   1.083       .  S
C2427      C2437   1.410       .  A
C2427      C2428   1.411   1_455  A
C2428      C2434   1.414       .  A
C2428      C2429   1.424       .  A
C2429      C2431   1.411       .  A
C2429      C2430   1.412   1_655  A
C2430      C2438   1.413       .  A
C2431      C2440   1.417       .  A
C2431      C2432   1.407       .  A
C2432      C2433   1.407       .  A
C2432      H2443   1.083       .  S
C2433      C2434   1.406       .  A
C2433      H2444   1.083       .  S
C2434      C2435   1.418       .  A
C2435      C2436   1.412       .  A
C2435      H2445   1.084       .  S
C2436      C2437   1.409   1_655  A
C2437      H2446   1.084       .  S
C2438      C2439   1.411   1_455  A
C2438      H2447   1.084       .  S
C2439      C2440   1.415       .  A
C2440      H2448   1.084       .  S
C2449      C2450   1.402       .  A
C2449      C2454   1.404       .  A
C2449      H2465   1.083       .  S
C2450      C2451   1.405       .  A
C2450      H2466   1.083       .  S
C2451      C2461   1.408       .  A
C2451      C2452   1.410       .  A
C2452      C2458   1.414       .  A
C2452      C2453   1.422       .  A
C2453      C2455   1.410       .  A
C2453      C2454   1.413       .  A
C2454      C2462   1.412       .  A
C2455      C2464   1.414       .  A
C2455      C2456   1.407       .  A
C2456      C2457   1.406       .  A
C2456      H2467   1.083       .  S
C2457      C2458   1.406       .  A
C2457      H2468   1.083       .  S
C2458      C2459   1.417       .  A
C2459      C2460   1.411       .  A
C2459      H2469   1.084       .  S
C2460      C2461   1.408       .  A
C2461      H2470   1.084       .  S
C2462      C2463   1.409       .  A
C2462      H2471   1.084       .  S
C2463      C2464   1.415       .  A
C2464      H2472   1.084       .  S
C2473      C2474   1.401       .  A
C2473      C2478   1.404       .  A
C2473      H2489   1.083       .  S
C2474      C2475   1.404       .  A
C2474      H2490   1.083       .  S
C2475      C2485   1.411       .  A
C2475      C2476   1.413       .  A
C2476      C2482   1.410       .  A
C2476      C2477   1.422       .  A
C2477      C2479   1.414       .  A
C2477      C2478   1.410       .  A
C2478      C2486   1.407       .  A
C2479      C2488   1.417       .  A
C2479      C2480   1.406       .  A
C2480      C2481   1.406       .  A
C2480      H2491   1.083       .  S
C2481      C2482   1.407       .  A
C2481      H2492   1.083       .  S
C2482      C2483   1.414       .  A
C2483      C2484   1.415       .  A
C2483      H2493   1.084       .  S
C2484      C2485   1.411       .  A
C2485      H2494   1.084       .  S
C2486      C2487   1.407       .  A
C2486      H2495   1.084       .  S
C2487      C2488   1.410       .  A
C2488      H2496   1.084       .  S
C2497      C2498   1.397       .  A
C2497      C2502   1.402       .  A
C2497      H2513   1.084       .  S
C2498      C2499   1.403       .  A
C2498      H2514   1.084       .  S
C2499      C2509   1.396       .  A
C2499      C2500   1.411       .  A
C2500      C2506   1.415       .  A
C2500      C2501   1.405       .  A
C2501      C2503   1.409       .  A
C2501      C2502   1.416       .  A
C2502      C2510   1.402       .  A
C2503      C2512   1.392       .  A
C2503      C2504   1.403       .  A
C2504      C2505   1.396       .  A
C2504      H2515   1.084       .  S
C2505      C2506   1.402       .  A
C2505      H2516   1.084       .  S
C2506      C2507   1.398       .  A
C2507      C2508   1.397       .  A
C2507      H2517   1.083       .  S
C2508      C2509   1.400       .  A
C2509      H2518   1.085       .  S
C2510      C2511   1.398       .  A
C2510      H2519   1.084       .  S
C2511      C2512   1.404       .  A
C2512      H2520   1.085       .  S
C2521      C2522   1.402       .  A
C2521      C2526   1.404       .  A
C2521      H2537   1.083       .  S
C2522      C2523   1.405       .  A
C2522      H2538   1.083       .  S
C2523      C2533   1.405       .  A
C2523      C2524   1.412       .  A
C2524      C2530   1.411       .  A
C2524      C2525   1.405       .  A
C2525      C2527   1.408       .  A
C2525      C2526   1.414       .  A
C2526      C2534   1.408       .  A
C2527      C2536   1.384       .  A
C2527      C2528   1.402       .  A
C2528      C2529   1.390       .  A
C2528      H2539   1.084       .  S
C2529      C2530   1.400       .  A
C2529      H2540   1.085       .  S
C2530      C2531   1.387       .  A
C2531      C2532   1.396       .  A
C2531      H2541   1.077       .  S
C2532      C2533   1.405       .  A
C2533      H2542   1.084       .  S
C2534      C2535   1.404       .  A
C2534      H2543   1.084       .  S
C2535      C2536   1.407       .  A
C2536      H2544   1.085       .  S
C2545      C2546   1.406       .  A
C2545      C2550   1.406       .  A
C2545      H2561   1.083       .  S
C2546      C2547   1.407       .  A
C2546      H2562   1.083       .  S
C2547      C2557   1.413       .  A
C2547      C2548   1.410       .  A
C2548      C2554   1.413       .  A
C2548      C2549   1.422       .  A
C2549      C2551   1.410       .  A
C2549      C2550   1.414       .  A
C2550      C2558   1.417       .  A
C2551      C2560   1.407       .  A
C2551      C2552   1.404       .  A
C2552      C2553   1.402       .  A
C2552      H2563   1.083   1_655  S
C2553      C2554   1.404       .  A
C2553      H2564   1.083       .  S
C2554      C2555   1.412       .  A
C2555      C2556   1.409       .  A
C2555      H2565   1.084       .  S
C2556      C2557   1.416       .  A
C2557      H2566   1.084       .  S
C2558      C2559   1.410       .  A
C2558      H2567   1.083       .  S
C2559      C2560   1.408       .  A
C2560      H2568   1.084   1_655  S
C2569      C2570   1.402       .  A
C2569      C2574   1.404       .  A
C2569      H2585   1.083   1_655  S
C2570      C2571   1.404       .  A
C2570      H2586   1.083       .  S
C2571      C2581   1.412       .  A
C2571      C2572   1.413       .  A
C2572      C2578   1.410       .  A
C2572      C2573   1.421       .  A
C2573      C2575   1.414       .  A
C2573      C2574   1.410       .  A
C2574      C2582   1.407       .  A
C2575      C2584   1.415       .  A
C2575      C2576   1.405       .  A
C2576      C2577   1.405       .  A
C2576      H2587   1.083       .  S
C2577      C2578   1.407       .  A
C2577      H2588   1.083       .  S
C2578      C2579   1.412       .  A
C2579      C2580   1.415       .  A
C2579      H2589   1.084       .  S
C2580      C2581   1.410       .  A
C2581      H2590   1.084       .  S
C2582      C2583   1.408       .  A
C2582      H2591   1.084   1_655  S
C2583      C2584   1.409       .  A
C2584      H2592   1.084       .  S
C2593      C2594   1.401       .  A
C2593      C2598   1.405       .  A
C2593      H2609   1.083       .  S
C2594      C2595   1.404       .  A
C2594      H2610   1.083       .  S
C2595      C2605   1.410       .  A
C2595      C2596   1.413       .  A
C2596      C2602   1.410       .  A
C2596      C2597   1.419       .  A
C2597      C2599   1.414       .  A
C2597      C2598   1.410       .  A
C2598      C2606   1.406       .  A
C2599      C2608   1.413       .  A
C2599      C2600   1.404       .  A
C2600      C2601   1.403       .  A
C2600      H2611   1.083       .  S
C2601      C2602   1.406       .  A
C2601      H2612   1.083       .  S
C2602      C2603   1.410       .  A
C2603      C2604   1.413       .  A
C2603      H2613   1.084       .  S
C2604      C2605   1.409       .  A
C2605      H2614   1.084       .  S
C2606      C2607   1.407       .  A
C2606      H2615   1.084       .  S
C2607      C2608   1.407       .  A
C2608      H2616   1.084       .  S
C2617      C2618   1.404       .  A
C2617      C2622   1.405       .  A
C2617      H2633   1.083       .  S
C2618      C2619   1.405       .  A
C2618      H2634   1.083       .  S
C2619      C2629   1.410       .  A
C2619      C2620   1.410       .  A
C2620      C2626   1.415       .  A
C2620      C2621   1.424       .  A
C2621      C2623   1.409       .  A
C2621      C2622   1.414       .  A
C2622      C2630   1.416       .  A
C2623      C2632   1.413       .  A
C2623      C2624   1.407       .  A
C2624      C2625   1.406       .  A
C2624      H2635   1.083       .  S
C2625      C2626   1.405       .  A
C2625      H2636   1.083       .  S
C2626      C2627   1.417       .  A
C2627      C2628   1.411       .  A
C2627      H2637   1.084       .  S
C2628      C2629   1.409       .  A
C2629      H2638   1.084       .  S
C2630      C2631   1.412       .  A
C2630      H2639   1.084       .  S
C2631      C2632   1.416       .  A
C2632      H2640   1.084       .  S
C2641      C2642   1.402       .  A
C2641      C2646   1.404       .  A
C2641      H2657   1.083       .  S
C2642      C2643   1.405       .  A
C2642      H2658   1.083       .  S
C2643      C2653   1.407       .  A
C2643      C2644   1.410       .  A
C2644      C2650   1.414       .  A
C2644      C2645   1.421       .  A
C2645      C2647   1.410       .  A
C2645      C2646   1.413       .  A
C2646      C2654   1.412       .  A
C2647      C2656   1.412       .  A
C2647      C2648   1.406       .  A
C2648      C2649   1.405       .  A
C2648      H2659   1.083       .  S
C2649      C2650   1.405       .  A
C2649      H2660   1.083       .  S
C2650      C2651   1.415       .  A
C2651      C2652   1.410       .  A
C2651      H2661   1.084       .  S
C2652      C2653   1.409       .  A
C2653      H2662   1.084       .  S
C2654      C2655   1.409       .  A
C2654      H2663   1.084       .  S
C2655      C2656   1.413       .  A
C2656      H2664   1.084       .  S
C2665      C2666   1.402       .  A
C2665      C2670   1.405       .  A
C2665      H2681   1.083       .  S
C2666      C2667   1.403       .  A
C2666      H2682   1.083       .  S
C2667      C2677   1.410       .  A
C2667      C2668   1.414       .  A
C2668      C2674   1.411       .  A
C2668      C2669   1.419       .  A
C2669      C2671   1.413       .  A
C2669      C2670   1.410       .  A
C2670      C2678   1.408       .  A
C2671      C2680   1.412       .  A
C2671      C2672   1.406       .  A
C2672      C2673   1.403       .  A
C2672      H2683   1.083       .  S
C2673      C2674   1.405       .  A
C2673      H2684   1.084       .  S
C2674      C2675   1.408       .  A
C2675      C2676   1.409       .  A
C2675      H2685   1.084       .  S
C2676      C2677   1.404       .  A
C2677      H2686   1.084       .  S
C2678      C2679   1.411       .  A
C2678      H2687   1.084       .  S
C2679      C2680   1.412       .  A
C2680      H2688   1.084       .  S
C2689      C2690   1.406       .  A
C2689      C2694   1.407       .  A
C2689      H2705   1.083       .  S
C2690      C2691   1.406       .  A
C2690      H2706   1.083       .  S
C2691      C2701   1.419       .  A
C2691      C2692   1.414       .  A
C2692      C2698   1.410       .  A
C2692      C2693   1.425       .  A
C2693      C2695   1.413       .  A
C2693      C2694   1.410       .  A
C2694      C2702   1.415       .  A
C2695      C2704   1.415       .  A
C2695      C2696   1.405       .  A
C2696      C2697   1.404       .  A
C2696      H2707   1.083       .  S
C2697      C2698   1.405       .  A
C2697      H2708   1.083       .  S
C2698      C2699   1.411       .  A
C2699      C2700   1.410       .  A
C2699      H2709   1.084       .  S
C2700      C2701   1.412       .  A
C2701      H2710   1.083       .  S
C2702      C2703   1.416       .  A
C2702      H2711   1.084       .  S
C2703      C2704   1.412       .  A
C2704      H2712   1.084       .  S
C2713      C2714   1.404       .  A
C2713      C2718   1.405       .  A
C2713      H2729   1.083       .  S
C2714      C2715   1.406       .  A
C2714      H2730   1.083       .  S
C2715      C2725   1.411       .  A
C2715      C2716   1.410       .  A
C2716      C2722   1.412       .  A
C2716      C2717   1.419       .  A
C2717      C2719   1.411       .  A
C2717      C2718   1.414       .  A
C2718      C2726   1.414       .  A
C2719      C2728   1.406       .  A
C2719      C2720   1.404       .  A
C2720      C2721   1.401       .  A
C2720      H2731   1.083       .  S
C2721      C2722   1.404       .  A
C2721      H2732   1.084       .  S
C2722      C2723   1.409       .  A
C2723      C2724   1.409       .  A
C2723      H2733   1.084       .  S
C2724      C2725   1.413       .  A
C2725      H2734   1.084       .  S
C2726      C2727   1.407       .  A
C2726      H2735   1.084       .  S
C2727      C2728   1.407       .  A
C2728      H2736   1.084       .  S
C2737      C2738   1.396       .  A
C2737      C2742   1.402       .  A
C2737      H2753   1.084       .  S
C2738      C2739   1.403       .  A
C2738      H2754   1.084       .  S
C2739      C2749   1.393       .  A
C2739      C2740   1.410       .  A
C2740      C2746   1.416       .  A
C2740      C2741   1.405       .  A
C2741      C2743   1.411       .  A
C2741      C2742   1.415       .  A
C2742      C2750   1.399       .  A
C2743      C2752   1.396       .  A
C2743      C2744   1.403       .  A
C2744      C2745   1.396       .  A
C2744      H2755   1.084       .  S
C2745      C2746   1.401       .  A
C2745      H2756   1.084       .  S
C2746      C2747   1.400       .  A
C2747      C2748   1.397       .  A
C2747      H2757   1.085       .  S
C2748      C2749   1.403       .  A
C2749      H2758   1.085       .  S
C2750      C2751   1.398       .  A
C2750      H2759   1.083       .  S
C2751      C2752   1.400       .  A
C2752      H2760   1.085       .  S
C2761      C2762   1.394       .  A
C2761      C2766   1.401       .  A
C2761      H2777   1.084       .  S
C2762      C2763   1.402       .  A
C2762      H2778   1.084       .  S
C2763      C2773   1.391       .  A
C2763      C2764   1.410       .  A
C2764      C2770   1.415       .  A
C2764      C2765   1.406       .  A
C2765      C2767   1.411       .  A
C2765      C2766   1.414       .  A
C2766      C2774   1.394       .  A
C2767      C2776   1.401       .  A
C2767      C2768   1.404       .  A
C2768      C2769   1.400       .  A
C2768      H2779   1.084   1_556  S
C2769      C2770   1.403       .  A
C2769      H2780   1.084       .  S
C2770      C2771   1.405       .  A
C2771      C2772   1.401       .  A
C2771      H2781   1.084       .  S
C2772      C2773   1.403       .  A
C2773      H2782   1.086       .  S
C2774      C2775   1.395       .  A
C2774      H2783   1.080       .  S
C2775      C2776   1.403       .  A
C2776      H2784   1.085   1_556  S
C2785      C2786   1.397       .  A
C2785      C2790   1.402       .  A
C2785      H2801   1.084       .  S
C2786      C2787   1.403       .  A
C2786      H2802   1.084       .  S
C2787      C2797   1.396       .  A
C2787      C2788   1.411       .  A
C2788      C2794   1.415       .  A
C2788      C2789   1.406       .  A
C2789      C2791   1.410       .  A
C2789      C2790   1.415       .  A
C2790      C2798   1.401       .  A
C2791      C2800   1.395       .  A
C2791      C2792   1.403       .  A
C2792      C2793   1.396       .  A
C2792      H2803   1.084       .  S
C2793      C2794   1.402       .  A
C2793      H2804   1.084       .  S
C2794      C2795   1.399       .  A
C2795      C2796   1.398       .  A
C2795      H2805   1.084       .  S
C2796      C2797   1.401       .  A
C2797      H2806   1.085       .  S
C2798      C2799   1.399       .  A
C2798      H2807   1.085       .  S
C2799      C2800   1.401       .  A
C2800      H2808   1.085       .  S
C2809      C2810   1.405       .  A
C2809      C2814   1.406       .  A
C2809      H2825   1.083       .  S
C2810      C2811   1.406       .  A
C2810      H2826   1.083       .  S
C2811      C2821   1.413       .  A
C2811      C2812   1.411       .  A
C2812      C2818   1.412       .  A
C2812      C2813   1.420       .  A
C2813      C2815   1.411       .  A
C2813      C2814   1.413       .  A
C2814      C2822   1.414       .  A
C2815      C2824   1.407       .  A
C2815      C2816   1.404       .  A
C2816      C2817   1.401       .  A
C2816      H2827   1.083       .  S
C2817      C2818   1.404       .  A
C2817      H2828   1.083       .  S
C2818      C2819   1.408       .  A
C2819      C2820   1.409       .  A
C2819      H2829   1.084       .  S
C2820      C2821   1.413       .  A
C2821      H2830   1.084       .  S
C2822      C2823   1.410       .  A
C2822      H2831   1.083       .  S
C2823      C2824   1.407       .  A
C2824      H2832   1.084       .  S
C2833      C2834   1.406       .  A
C2833      C2838   1.406       .  A
C2833      H2849   1.083       .  S
C2834      C2835   1.407       .  A
C2834      H2850   1.083       .  S
C2835      C2845   1.415       .  A
C2835      C2836   1.410       .  A
C2836      C2842   1.413       .  A
C2836      C2837   1.425       .  A
C2837      C2839   1.410       .  A
C2837      C2838   1.414       .  A
C2838      C2846   1.419       .  A
C2839      C2848   1.411       .  A
C2839      C2840   1.405       .  A
C2840      C2841   1.404       .  A
C2840      H2851   1.083       .  S
C2841      C2842   1.405       .  A
C2841      H2852   1.083       .  S
C2842      C2843   1.415       .  A
C2843      C2844   1.412       .  A
C2843      H2853   1.084       .  S
C2844      C2845   1.416       .  A
C2845      H2854   1.084       .  S
C2846      C2847   1.410       .  A
C2846      H2855   1.084       .  S
C2847      C2848   1.410       .  A
C2848      H2856   1.084       .  S
C2857      C2858   1.401       .  A
C2857      C2862   1.404       .  A
C2857      H2873   1.083       .  S
C2858      C2859   1.404       .  A
C2858      H2874   1.083       .  S
C2859      C2869   1.410       .  A
C2859      C2860   1.412       .  A
C2860      C2866   1.410       .  A
C2860      C2861   1.421       .  A
C2861      C2863   1.414       .  A
C2861      C2862   1.411       .  A
C2862      C2870   1.407       .  A
C2863      C2872   1.415       .  A
C2863      C2864   1.405       .  A
C2864      C2865   1.405       .  A
C2864      H2875   1.083       .  S
C2865      C2866   1.407       .  A
C2865      H2876   1.083       .  S
C2866      C2867   1.413       .  A
C2867      C2868   1.414       .  A
C2867      H2877   1.084       .  S
C2868      C2869   1.410       .  A
C2869      H2878   1.084       .  S
C2870      C2871   1.407       .  A
C2870      H2879   1.084       .  S
C2871      C2872   1.409       .  A
C2872      H2880   1.084       .  S
C2881      C2882   1.402       .  A
C2881      C2886   1.405       .  A
C2881      H2897   1.083       .  S
C2882      C2883   1.403       .  A
C2882      H2898   1.083       .  S
C2883      C2893   1.411       .  A
C2883      C2884   1.414       .  A
C2884      C2890   1.410       .  A
C2884      C2885   1.420       .  A
C2885      C2887   1.413       .  A
C2885      C2886   1.410       .  A
C2886      C2894   1.408       .  A
C2887      C2896   1.414       .  A
C2887      C2888   1.406       .  A
C2888      C2889   1.404       .  A
C2888      H2899   1.083       .  S
C2889      C2890   1.406       .  A
C2889      H2900   1.083       .  S
C2890      C2891   1.409       .  A
C2891      C2892   1.410       .  A
C2891      H2901   1.084       .  S
C2892      C2893   1.406       .  A
C2893      H2902   1.084       .  S
C2894      C2895   1.412       .  A
C2894      H2903   1.084       .  S
C2895      C2896   1.412       .  A
C2896      H2904   1.084       .  S
C2905      C2906   1.403       .  A
C2905      C2910   1.405       .  A
C2905      H2921   1.084       .  S
C2906      C2907   1.405       .  A
C2906      H2922   1.083       .  S
C2907      C2917   1.410       .  A
C2907      C2908   1.411       .  A
C2908      C2914   1.414       .  A
C2908      C2909   1.423       .  A
C2909      C2911   1.410       .  A
C2909      C2910   1.413       .  A
C2910      C2918   1.414       .  A
C2911      C2920   1.413       .  A
C2911      C2912   1.406       .  A
C2912      C2913   1.405       .  A
C2912      H2923   1.083       .  S
C2913      C2914   1.405       .  A
C2913      H2924   1.083       .  S
C2914      C2915   1.416       .  A
C2915      C2916   1.410       .  A
C2915      H2925   1.084       .  S
C2916      C2917   1.409       .  A
C2917      H2926   1.084       .  S
C2918      C2919   1.411       .  A
C2918      H2927   1.084       .  S
C2919      C2920   1.413       .  A
C2920      H2928   1.084       .  S
C2929      C2930   1.403       .  A
C2929      C2934   1.405       .  A
C2929      H2945   1.083       .  S
C2930      C2931   1.405       .  A
C2930      H2946   1.085       .  S
C2931      C2941   1.408       .  A
C2931      C2932   1.410       .  A
C2932      C2938   1.414       .  A
C2932      C2933   1.421       .  A
C2933      C2935   1.409       .  A
C2933      C2934   1.413       .  A
C2934      C2942   1.413       .  A
C2935      C2944   1.410       .  A
C2935      C2936   1.406       .  A
C2936      C2937   1.404       .  A
C2936      H2947   1.084       .  S
C2937      C2938   1.405       .  A
C2937      H2948   1.082       .  S
C2938      C2939   1.415       .  A
C2939      C2940   1.409       .  A
C2939      H2949   1.081       .  S
C2940      C2941   1.408       .  A
C2941      H2950   1.085       .  S
C2942      C2943   1.410       .  A
C2942      H2951   1.084       .  S
C2943      C2944   1.415       .  A
C2944      H2952   1.084       .  S
C2953      C2954   1.396       .  A
C2953      C2958   1.402       .  A
C2953      H2969   1.084       .  S
C2954      C2955   1.403       .  A
C2954      H2970   1.084       .  S
C2955      C2965   1.392       .  A
C2955      C2956   1.409       .  A
C2956      C2962   1.416       .  A
C2956      C2957   1.406       .  A
C2957      C2959   1.410       .  A
C2957      C2958   1.416       .  A
C2958      C2966   1.400       .  A
C2959      C2968   1.395       .  A
C2959      C2960   1.403       .  A
C2960      C2961   1.397       .  A
C2960      H2971   1.084       .  S
C2961      C2962   1.402       .  A
C2961      H2972   1.084       .  S
C2962      C2963   1.402       .  A
C2963      C2964   1.398       .  A
C2963      H2973   1.085       .  S
C2964      C2965   1.402       .  A
C2965      H2974   1.085       .  S
C2966      C2967   1.398       .  A
C2966      H2975   1.084       .  S
C2967      C2968   1.401       .  A
C2968      H2976   1.085       .  S
C2977      C2978   1.398       .  A
C2977      C2982   1.403       .  A
C2977      H2993   1.084       .  S
C2978      C2979   1.402       .  A
C2978      H2994   1.084       .  S
C2979      C2989   1.402       .  A
C2979      C2980   1.416       .  A
C2980      C2986   1.410       .  A
C2980      C2981   1.407       .  A
C2981      C2983   1.415       .  A
C2981      C2982   1.411       .  A
C2982      C2990   1.397       .  A
C2983      C2992   1.400       .  A
C2983      C2984   1.402       .  A
C2984      C2985   1.397       .  A
C2984      H2995   1.084       .  S
C2985      C2986   1.403       .  A
C2985      H2996   1.084       .  S
C2986      C2987   1.396       .  A
C2987      C2988   1.403       .  A
C2987      H2997   1.085       .  S
C2988      C2989   1.399       .  A
C2989      H2998   1.085       .  S
C2990      C2991   1.401       .  A
C2990      H2999   1.085       .  S
C2991      C2992   1.398       .  A
C2992      H3000   1.084       .  S
C3001      C3002   1.395       .  A
C3001      C3006   1.402       .  A
C3001      H3017   1.084       .  S
C3002      C3003   1.401       .  A
C3002      H3018   1.084       .  S
C3003      C3013   1.397       .  A
C3003      C3004   1.415       .  A
C3004      C3010   1.411       .  A
C3004      C3005   1.404       .  A
C3005      C3007   1.416       .  A
C3005      C3006   1.410       .  A
C3006      C3014   1.392       .  A
C3007      C3016   1.399       .  A
C3007      C3008   1.402       .  A
C3008      C3009   1.397       .  A
C3008      H3019   1.084       .  S
C3009      C3010   1.403       .  A
C3009      H3020   1.084       .  S
C3010      C3011   1.395       .  A
C3011      C3012   1.401       .  A
C3011      H3021   1.085       .  S
C3012      C3013   1.396       .  A
C3013      H3022   1.084       .  S
C3014      C3015   1.400       .  A
C3014      H3023   1.085       .  S
C3015      C3016   1.397       .  A
C3016      H3024   1.085       .  S
C3025      C3026   1.404       .  A
C3025      C3030   1.404       .  A
C3025      H3041   1.083       .  S
C3026      C3027   1.406       .  A
C3026      H3042   1.083       .  S
C3027      C3037   1.411       .  A
C3027      C3028   1.410       .  A
C3028      C3034   1.413       .  A
C3028      C3029   1.422       .  A
C3029      C3031   1.410       .  A
C3029      C3030   1.415       .  A
C3030      C3038   1.414       .  A
C3031      C3040   1.409       .  A
C3031      C3032   1.405       .  A
C3032      C3033   1.404       .  A
C3032      H3043   1.083       .  S
C3033      C3034   1.405       .  A
C3033      H3044   1.083       .  S
C3034      C3035   1.415       .  A
C3035      C3036   1.412       .  A
C3035      H3045   1.084       .  S
C3036      C3037   1.415       .  A
C3037      H3046   1.084       .  S
C3038      C3039   1.407       .  A
C3038      H3047   1.084       .  S
C3039      C3040   1.409       .  A
C3040      H3048   1.084       .  S
C3049      C3050   1.404       .  A
C3049      C3054   1.406       .  A
C3049      H3065   1.083       .  S
C3050      C3051   1.406       .  A
C3050      H3066   1.083       .  S
C3051      C3061   1.415       .  A
C3051      C3052   1.412       .  A
C3052      C3058   1.411       .  A
C3052      C3053   1.423       .  A
C3053      C3055   1.413       .  A
C3053      C3054   1.411       .  A
C3054      C3062   1.412       .  A
C3055      C3064   1.415       .  A
C3055      C3056   1.405       .  A
C3056      C3057   1.405       .  A
C3056      H3067   1.083       .  S
C3057      C3058   1.406       .  A
C3057      H3068   1.083       .  S
C3058      C3059   1.413       .  A
C3059      C3060   1.414       .  A
C3059      H3069   1.084       .  S
C3060      C3061   1.413       .  A
C3061      H3070   1.084       .  S
C3062      C3063   1.411       .  A
C3062      H3071   1.084       .  S
C3063      C3064   1.410       .  A
C3064      H3072   1.083       .  S
C3073      C3074   1.400       .  A
C3073      C3078   1.404       .  A
C3073      H3089   1.084       .  S
C3074      C3075   1.404       .  A
C3074      H3090   1.083       .  S
C3075      C3085   1.408       .  A
C3075      C3076   1.413       .  A
C3076      C3082   1.410       .  A
C3076      C3077   1.416       .  A
C3077      C3079   1.415       .  A
C3077      C3078   1.410       .  A
C3078      C3086   1.402       .  A
C3079      C3088   1.410       .  A
C3079      C3080   1.404       .  A
C3080      C3081   1.402       .  A
C3080      H3091   1.083       .  S
C3081      C3082   1.405       .  A
C3081      H3092   1.083       .  S
C3082      C3083   1.407       .  A
C3083      C3084   1.411       .  A
C3083      H3093   1.084       .  S
C3084      C3085   1.409       .  A
C3085      H3094   1.084       .  S
C3086      C3087   1.405       .  A
C3086      H3095   1.085       .  S
C3087      C3088   1.404       .  A
C3088      H3096   1.084       .  S
C3097      C3098   1.403       .  A
C3097      C3102   1.406       .  A
C3097      H3113   1.083       .  S
C3098      C3099   1.404       .  A
C3098      H3114   1.083       .  S
C3099      C3109   1.414       .  A
C3099      C3100   1.414       .  A
C3100      C3106   1.410       .  A
C3100      C3101   1.422       .  A
C3101      C3103   1.413       .  A
C3101      C3102   1.409       .  A
C3102      C3110   1.410       .  A
C3103      C3112   1.415       .  A
C3103      C3104   1.406       .  A
C3104      C3105   1.404       .  A
C3104      H3115   1.083       .  S
C3105      C3106   1.405       .  A
C3105      H3116   1.084       .  S
C3106      C3107   1.409       .  A
C3107      C3108   1.409       .  A
C3107      H3117   1.084       .  S
C3108      C3109   1.407       .  A
C3109      H3118   1.084       .  S
C3110      C3111   1.413       .  A
C3110      H3119   1.084       .  S
C3111      C3112   1.412       .  A
C3112      H3120   1.084       .  S
C3121      C3122   1.400       .  A
C3121      C3126   1.404       .  A
C3121      H3137   1.083       .  S
C3122      C3123   1.404       .  A
C3122      H3138   1.083       .  S
C3123      C3133   1.404       .  A
C3123      C3124   1.410       .  A
C3124      C3130   1.414       .  A
C3124      C3125   1.417       .  A
C3125      C3127   1.410       .  A
C3125      C3126   1.413       .  A
C3126      C3134   1.408       .  A
C3127      C3136   1.408       .  A
C3127      C3128   1.406       .  A
C3128      C3129   1.402       .  A
C3128      H3139   1.084       .  S
C3129      C3130   1.404       .  A
C3129      H3140   1.083       .  S
C3130      C3131   1.410       .  A
C3131      C3132   1.406       .  A
C3131      H3141   1.083       .  S
C3132      C3133   1.407       .  A
C3133      H3142   1.085       .  S
C3134      C3135   1.408       .  A
C3134      H3143   1.084       .  S
C3135      C3136   1.412       .  A
C3136      H3144   1.083       .  S
C3145      C3146   1.402       .  A
C3145      C3150   1.404       .  A
C3145      H3161   1.083       .  S
C3146      C3147   1.406       .  A
C3146      H3162   1.083       .  S
C3147      C3157   1.407       .  A
C3147      C3148   1.409       .  A
C3148      C3154   1.414       .  A
C3148      C3149   1.417       .  A
C3149      C3151   1.410       .  A
C3149      C3150   1.415       .  A
C3150      C3158   1.411       .  A
C3151      C3160   1.403       .  A
C3151      C3152   1.404       .  A
C3152      C3153   1.400       .  A
C3152      H3163   1.084       .  S
C3153      C3154   1.404       .  A
C3153      H3164   1.083       .  S
C3154      C3155   1.410       .  A
C3155      C3156   1.408       .  A
C3155      H3165   1.084       .  S
C3156      C3157   1.412       .  A
C3157      H3166   1.084       .  S
C3158      C3159   1.405       .  A
C3158      H3167   1.084       .  S
C3159      C3160   1.405       .  A
C3160      H3168   1.085       .  S
C3169      C3170   1.405       .  A
C3169      C3174   1.406       .  A
C3169      H3185   1.083       .  S
C3170      C3171   1.405       .  A
C3170      H3186   1.083       .  S
C3171      C3181   1.416       .  A
C3171      C3172   1.414       .  A
C3172      C3178   1.411       .  A
C3172      C3173   1.423       .  A
C3173      C3175   1.413       .  A
C3173      C3174   1.410       .  A
C3174      C3182   1.413       .  A
C3175      C3184   1.415       .  A
C3175      C3176   1.405       .  A
C3176      C3177   1.404       .  A
C3176      H3187   1.083       .  S
C3177      C3178   1.406       .  A
C3177      H3188   1.083       .  S
C3178      C3179   1.411       .  A
C3179      C3180   1.410       .  A
C3179      H3189   1.084       .  S
C3180      C3181   1.408       .  A
C3181      H3190   1.084       .  S
C3182      C3183   1.415       .  A
C3182      H3191   1.084       .  S
C3183      C3184   1.412       .  A
C3184      H3192   1.084       .  S
C3193      C3194   1.397       .  A
C3193      C3198   1.403       .  A
C3193      H3209   1.084       .  S
C3194      C3195   1.402       .  A
C3194      H3210   1.084       .  S
C3195      C3205   1.400       .  A
C3195      C3196   1.416       .  A
C3196      C3202   1.409       .  A
C3196      C3197   1.401       .  A
C3197      C3199   1.414       .  A
C3197      C3198   1.411       .  A
C3198      C3206   1.395       .  A
C3199      C3208   1.391       .  A
C3199      C3200   1.400       .  A
C3200      C3201   1.392       .  A
C3200      H3211   1.084       .  S
C3201      C3202   1.402       .  A
C3201      H3212   1.084       .  S
C3202      C3203   1.387       .  A
C3203      C3204   1.402       .  A
C3203      H3213   1.086       .  S
C3204      C3205   1.398       .  A
C3205      H3214   1.084       .  S
C3206      C3207   1.399       .  A
C3206      H3215   1.085       .  S
C3207      C3208   1.393       .  A
C3208      H3216   1.080       .  S
C3217      C3218   1.394       .  A
C3217      C3222   1.401       .  A
C3217      H3233   1.084       .  S
C3218      C3219   1.402       .  A
C3218      H3234   1.084       .  S
C3219      C3229   1.390       .  A
C3219      C3220   1.409       .  A
C3220      C3226   1.417       .  A
C3220      C3221   1.405       .  A
C3221      C3223   1.410       .  A
C3221      C3222   1.416       .  A
C3222      C3230   1.398       .  A
C3223      C3232   1.395       .  A
C3223      C3224   1.404       .  A
C3224      C3225   1.397       .  A
C3224      H3235   1.084       .  S
C3225      C3226   1.402       .  A
C3225      H3236   1.084       .  S
C3226      C3227   1.402       .  A
C3227      C3228   1.398       .  A
C3227      H3237   1.085       .  S
C3228      C3229   1.399       .  A
C3229      H3238   1.082       .  S
C3230      C3231   1.396       .  A
C3230      H3239   1.084       .  S
C3231      C3232   1.402       .  A
C3232      H3240   1.085       .  S
C3241      C3242   1.402       .  A
C3241      C3246   1.405   1_455  A
C3241      H3257   1.083   1_554  S
C3242      C3243   1.404   1_455  A
C3242      H3258   1.083       .  S
C3243      C3253   1.412       .  A
C3243      C3244   1.414       .  A
C3244      C3250   1.409       .  A
C3244      C3245   1.420       .  A
C3245      C3247   1.414       .  A
C3245      C3246   1.410       .  A
C3246      C3254   1.407       .  A
C3247      C3256   1.412       .  A
C3247      C3248   1.404       .  A
C3248      C3249   1.403       .  A
C3248      H3259   1.083       .  S
C3249      C3250   1.406       .  A
C3249      H3260   1.083       .  S
C3250      C3251   1.408       .  A
C3251      C3252   1.414       .  A
C3251      H3261   1.082       .  S
C3252      C3253   1.410       .  A
C3253      H3262   1.084   1_655  S
C3254      C3255   1.409       .  A
C3254      H3263   1.084   1_654  S
C3255      C3256   1.408       .  A
C3256      H3264   1.084       .  S
C3265      C3266   1.404       .  A
C3265      C3270   1.405       .  A
C3265      H3281   1.083       .  S
C3266      C3267   1.405       .  A
C3266      H3282   1.083       .  S
C3267      C3277   1.417       .  A
C3267      C3268   1.414       .  A
C3268      C3274   1.409       .  A
C3268      C3269   1.423       .  A
C3269      C3271   1.414       .  A
C3269      C3270   1.409       .  A
C3270      C3278   1.409       .  A
C3271      C3280   1.415       .  A
C3271      C3272   1.405       .  A
C3272      C3273   1.404       .  A
C3272      H3283   1.083       .  S
C3273      C3274   1.407       .  A
C3273      H3284   1.084       .  S
C3274      C3275   1.411       .  A
C3275      C3276   1.416       .  A
C3275      H3285   1.084       .  S
C3276      C3277   1.412       .  A
C3277      H3286   1.084       .  S
C3278      C3279   1.410       .  A
C3278      H3287   1.084       .  S
C3279      C3280   1.410       .  A
C3280      H3288   1.083       .  S
C3289      C3290   1.405       .  A
C3289      C3294   1.405       .  A
C3289      H3305   1.083       .  S
C3290      C3291   1.406       .  A
C3290      H3306   1.083       .  S
C3291      C3301   1.412       .  A
C3291      C3292   1.410       .  A
C3292      C3298   1.413       .  A
C3292      C3293   1.420       .  A
C3293      C3295   1.411       .  A
C3293      C3294   1.414       .  A
C3294      C3302   1.415       .  A
C3295      C3304   1.407       .  A
C3295      C3296   1.404       .  A
C3296      C3297   1.401       .  A
C3296      H3307   1.083       .  S
C3297      C3298   1.404       .  A
C3297      H3308   1.083       .  S
C3298      C3299   1.410       .  A
C3299      C3300   1.410       .  A
C3299      H3309   1.084       .  S
C3300      C3301   1.413       .  A
C3301      H3310   1.084       .  S
C3302      C3303   1.409       .  A
C3302      H3311   1.084       .  S
C3303      C3304   1.407       .  A
C3304      H3312   1.084       .  S
C3313      C3314   1.397       .  A
C3313      C3318   1.402       .  A
C3313      H3329   1.084       .  S
C3314      C3315   1.403       .  A
C3314      H3330   1.084       .  S
C3315      C3325   1.397       .  A
C3315      C3316   1.410       .  A
C3316      C3322   1.416       .  A
C3316      C3317   1.408       .  A
C3317      C3319   1.410       .  A
C3317      C3318   1.416       .  A
C3318      C3326   1.403       .  A
C3319      C3328   1.396       .  A
C3319      C3320   1.404       .  A
C3320      C3321   1.397       .  A
C3320      H3331   1.084       .  S
C3321      C3322   1.402       .  A
C3321      H3332   1.084       .  S
C3322      C3323   1.402       .  A
C3323      C3324   1.399       .  A
C3323      H3333   1.084       .  S
C3324      C3325   1.401       .  A
C3325      H3334   1.085       .  S
C3326      C3327   1.399       .  A
C3326      H3335   1.085       .  S
C3327      C3328   1.403       .  A
C3328      H3336   1.085       .  S
C3337      C3338   1.399       .  A
C3337      C3342   1.403       .  A
C3337      H3353   1.083       .  S
C3338      C3339   1.404       .  A
C3338      H3354   1.084   1_556  S
C3339      C3349   1.397       .  A
C3339      C3340   1.410       .  A
C3340      C3346   1.416       .  A
C3340      C3341   1.406       .  A
C3341      C3343   1.409       .  A
C3341      C3342   1.417       .  A
C3342      C3350   1.405       .  A
C3343      C3352   1.391       .  A
C3343      C3344   1.403       .  A
C3344      C3345   1.394       .  A
C3344      H3355   1.083       .  S
C3345      C3346   1.401       .  A
C3345      H3356   1.085       .  S
C3346      C3347   1.397       .  A
C3347      C3348   1.396       .  A
C3347      H3357   1.084       .  S
C3348      C3349   1.402       .  A
C3349      H3358   1.085   1_556  S
C3350      C3351   1.400       .  A
C3350      H3359   1.084       .  S
C3351      C3352   1.402       .  A
C3352      H3360   1.084       .  S
C3361      C3362   1.389       .  A
C3361      C3366   1.400       .  A
C3361      H3377   1.084       .  S
C3362      C3363   1.400       .  A
C3362      H3378   1.084       .  S
C3363      C3373   1.383       .  A
C3363      C3364   1.409       .  A
C3364      C3370   1.413       .  A
C3364      C3365   1.402       .  A
C3365      C3367   1.412       .  A
C3365      C3366   1.410       .  A
C3366      C3374   1.384       .  A
C3367      C3376   1.403       .  A
C3367      C3368   1.404       .  A
C3368      C3369   1.401       .  A
C3368      H3379   1.083       .  S
C3369      C3370   1.404       .  A
C3369      H3380   1.083       .  S
C3370      C3371   1.404       .  A
C3371      C3372   1.404       .  A
C3371      H3381   1.084       .  S
C3372      C3373   1.401       .  A
C3373      H3382   1.085       .  S
C3374      C3375   1.401       .  A
C3374      H3383   1.085       .  S
C3375      C3376   1.404       .  A
C3376      H3384   1.084       .  S
C3385      C3386   1.398       .  A
C3385      C3390   1.402       .  A
C3385      H3401   1.083       .  S
C3386      C3387   1.403       .  A
C3386      H3402   1.084       .  S
C3387      C3397   1.399       .  A
C3387      C3388   1.411       .  A
C3388      C3394   1.414       .  A
C3388      C3389   1.407       .  A
C3389      C3391   1.410       .  A
C3389      C3390   1.415       .  A
C3390      C3398   1.403       .  A
C3391      C3400   1.395       .  A
C3391      C3392   1.404       .  A
C3392      C3393   1.396       .  A
C3392      H3403   1.084       .  S
C3393      C3394   1.402       .  A
C3393      H3404   1.084       .  S
C3394      C3395   1.398       .  A
C3395      C3396   1.399       .  A
C3395      H3405   1.080       .  S
C3396      C3397   1.401       .  A
C3397      H3406   1.085       .  S
C3398      C3399   1.400       .  A
C3398      H3407   1.084       .  S
C3399      C3400   1.405       .  A
C3400      H3408   1.085       .  S
C3409      C3410   1.402       .  A
C3409      C3414   1.405       .  A
C3409      H3425   1.082       .  S
C3410      C3411   1.404       .  A
C3410      H3426   1.084       .  S
C3411      C3421   1.411       .  A
C3411      C3412   1.413       .  A
C3412      C3418   1.410       .  A
C3412      C3413   1.419       .  A
C3413      C3415   1.414       .  A
C3413      C3414   1.410       .  A
C3414      C3422   1.407       .  A
C3415      C3424   1.411       .  A
C3415      C3416   1.404       .  A
C3416      C3417   1.403       .  A
C3416      H3427   1.083       .  S
C3417      C3418   1.406       .  A
C3417      H3428   1.083       .  S
C3418      C3419   1.409       .  A
C3419      C3420   1.412       .  A
C3419      H3429   1.084       .  S
C3420      C3421   1.410       .  A
C3421      H3430   1.085       .  S
C3422      C3423   1.408       .  A
C3422      H3431   1.083       .  S
C3423      C3424   1.407       .  A
C3424      H3432   1.083       .  S
C3433      C3434   1.402       .  A
C3433      C3438   1.405       .  A
C3433      H3449   1.083       .  S
C3434      C3435   1.404       .  A
C3434      H3450   1.083       .  S
C3435      C3445   1.412       .  A
C3435      C3436   1.413       .  A
C3436      C3442   1.410       .  A
C3436      C3437   1.423       .  A
C3437      C3439   1.414       .  A
C3437      C3438   1.411       .  A
C3438      C3446   1.409       .  A
C3439      C3448   1.417       .  A
C3439      C3440   1.406       .  A
C3440      C3441   1.406       .  A
C3440      H3451   1.083       .  S
C3441      C3442   1.407       .  A
C3441      H3452   1.083       .  S
C3442      C3443   1.414       .  A
C3443      C3444   1.414       .  A
C3443      H3453   1.084       .  S
C3444      C3445   1.410       .  A
C3445      H3454   1.084       .  S
C3446      C3447   1.408       .  A
C3446      H3455   1.084       .  S
C3447      C3448   1.410       .  A
C3448      H3456   1.084       .  S
C3457      C3458   1.407       .  A
C3457      C3462   1.406       .  A
C3457      H3473   1.083       .  S
C3458      C3459   1.407       .  A
C3458      H3474   1.084       .  S
C3459      C3469   1.415       .  A
C3459      C3460   1.411       .  A
C3460      C3466   1.413       .  A
C3460      C3461   1.424       .  A
C3461      C3463   1.411       .  A
C3461      C3462   1.414       .  A
C3462      C3470   1.418       .  A
C3463      C3472   1.409       .  A
C3463      C3464   1.405       .  A
C3464      C3465   1.402       .  A
C3464      H3475   1.083   1_564  S
C3465      C3466   1.405       .  A
C3465      H3476   1.083   1_554  S
C3466      C3467   1.413       .  A
C3467      C3468   1.411       .  A
C3467      H3477   1.084       .  S
C3468      C3469   1.415       .  A
C3469      H3478   1.084       .  S
C3470      C3471   1.413       .  A
C3470      H3479   1.083       .  S
C3471      C3472   1.409       .  A
C3472      H3480   1.084   1_565  S
C3481      C3482   1.398       .  A
C3481      C3486   1.402       .  A
C3481      H3497   1.084       .  S
C3482      C3483   1.404       .  A
C3482      H3498   1.084       .  S
C3483      C3493   1.397       .  A
C3483      C3484   1.410       .  A
C3484      C3490   1.416       .  A
C3484      C3485   1.408       .  A
C3485      C3487   1.410       .  A
C3485      C3486   1.416       .  A
C3486      C3494   1.403       .  A
C3487      C3496   1.396       .  A
C3487      C3488   1.404       .  A
C3488      C3489   1.397       .  A
C3488      H3499   1.084       .  S
C3489      C3490   1.402       .  A
C3489      H3500   1.084       .  S
C3490      C3491   1.401       .  A
C3491      C3492   1.398       .  A
C3491      H3501   1.084       .  S
C3492      C3493   1.403       .  A
C3493      H3502   1.085       .  S
C3494      C3495   1.399       .  A
C3494      H3503   1.085       .  S
C3495      C3496   1.403       .  A
C3496      H3504   1.085       .  S
C3505      C3506   1.397       .  A
C3505      C3510   1.404       .  A
C3505      H3521   1.084       .  S
C3506      C3507   1.402       .  A
C3506      H3522   1.084       .  S
C3507      C3517   1.401       .  A
C3507      C3508   1.416       .  A
C3508      C3514   1.411       .  A
C3508      C3509   1.408       .  A
C3509      C3511   1.416       .  A
C3509      C3510   1.410       .  A
C3510      C3518   1.396       .  A
C3511      C3520   1.403       .  A
C3511      C3512   1.402       .  A
C3512      C3513   1.398       .  A
C3512      H3523   1.084       .  S
C3513      C3514   1.403       .  A
C3513      H3524   1.084       .  S
C3514      C3515   1.397       .  A
C3515      C3516   1.402       .  A
C3515      H3525   1.085       .  S
C3516      C3517   1.398       .  A
C3517      H3526   1.084       .  S
C3518      C3519   1.403       .  A
C3518      H3527   1.085       .  S
C3519      C3520   1.399       .  A
C3520      H3528   1.085       .  S
C3529      C3530   1.398       .  A
C3529      C3534   1.402       .  A
C3529      H3545   1.084       .  S
C3530      C3531   1.404       .  A
C3530      H3546   1.084       .  S
C3531      C3541   1.397       .  A
C3531      C3532   1.410       .  A
C3532      C3538   1.416       .  A
C3532      C3533   1.408       .  A
C3533      C3535   1.410       .  A
C3533      C3534   1.416       .  A
C3534      C3542   1.402       .  A
C3535      C3544   1.396       .  A
C3535      C3536   1.403       .  A
C3536      C3537   1.398       .  A
C3536      H3547   1.084       .  S
C3537      C3538   1.403       .  A
C3537      H3548   1.084       .  S
C3538      C3539   1.403       .  A
C3539      C3540   1.400       .  A
C3539      H3549   1.084       .  S
C3540      C3541   1.403       .  A
C3541      H3550   1.085       .  S
C3542      C3543   1.399       .  A
C3542      H3551   1.085       .  S
C3543      C3544   1.402       .  A
C3544      H3552   1.085       .  S
C3553      C3554   1.398       .  A
C3553      C3558   1.402       .  A
C3553      H3569   1.084       .  S
C3554      C3555   1.404       .  A
C3554      H3570   1.084       .  S
C3555      C3565   1.399       .  A
C3555      C3556   1.410       .  A
C3556      C3562   1.416       .  A
C3556      C3557   1.411       .  A
C3557      C3559   1.411       .  A
C3557      C3558   1.415       .  A
C3558      C3566   1.404       .  A
C3559      C3568   1.400       .  A
C3559      C3560   1.404       .  A
C3560      C3561   1.399       .  A
C3560      H3571   1.084       .  S
C3561      C3562   1.403       .  A
C3561      H3572   1.084       .  S
C3562      C3563   1.406       .  A
C3563      C3564   1.401       .  A
C3563      H3573   1.084       .  S
C3564      C3565   1.404       .  A
C3565      H3574   1.085       .  S
C3566      C3567   1.400       .  A
C3566      H3575   1.084       .  S
C3567      C3568   1.404       .  A
C3568      H3576   1.085       .  S
C3577      C3578   1.403       .  A
C3577      C3582   1.405       .  A
C3577      H3593   1.083       .  S
C3578      C3579   1.405       .  A
C3578      H3594   1.083       .  S
C3579      C3589   1.415       .  A
C3579      C3580   1.413       .  A
C3580      C3586   1.410       .  A
C3580      C3581   1.423       .  A
C3581      C3583   1.414       .  A
C3581      C3582   1.410       .  A
C3582      C3590   1.409       .  A
C3583      C3592   1.416       .  A
C3583      C3584   1.405       .  A
C3584      C3585   1.405       .  A
C3584      H3595   1.083       .  S
C3585      C3586   1.407       .  A
C3585      H3596   1.083       .  S
C3586      C3587   1.413       .  A
C3587      C3588   1.415       .  A
C3587      H3597   1.084       .  S
C3588      C3589   1.412       .  A
C3589      H3598   1.084       .  S
C3590      C3591   1.409       .  A
C3590      H3599   1.084       .  S
C3591      C3592   1.410       .  A
C3592      H3600   1.084       .  S
C3601      C3602   1.403       .  A
C3601      C3606   1.405   1_655  A
C3601      H3617   1.083       .  S
C3602      C3603   1.405   1_655  A
C3602      H3618   1.083       .  S
C3603      C3613   1.407       .  A
C3603      C3604   1.410       .  A
C3604      C3610   1.415       .  A
C3604      C3605   1.420       .  A
C3605      C3607   1.409       .  A
C3605      C3606   1.414       .  A
C3606      C3614   1.413       .  A
C3607      C3616   1.408       .  A
C3607      C3608   1.406       .  A
C3608      C3609   1.403       .  A
C3608      H3619   1.083       .  S
C3609      C3610   1.404       .  A
C3609      H3620   1.083       .  S
C3610      C3611   1.412       .  A
C3611      C3612   1.406       .  A
C3611      H3621   1.084       .  S
C3612      C3613   1.408       .  A
C3613      H3622   1.084   1_455  S
C3614      C3615   1.410       .  A
C3614      H3623   1.084   1_455  S
C3615      C3616   1.414       .  A
C3616      H3624   1.084       .  S
C3625      C3626   1.404       .  A
C3625      C3630   1.405       .  A
C3625      H3641   1.083       .  S
C3626      C3627   1.405       .  A
C3626      H3642   1.083       .  S
C3627      C3637   1.411       .  A
C3627      C3628   1.411       .  A
C3628      C3634   1.414       .  A
C3628      C3629   1.425       .  A
C3629      C3631   1.410       .  A
C3629      C3630   1.413       .  A
C3630      C3638   1.415       .  A
C3631      C3640   1.416       .  A
C3631      C3632   1.407       .  A
C3632      C3633   1.406       .  A
C3632      H3643   1.083       .  S
C3633      C3634   1.406       .  A
C3633      H3644   1.083       .  S
C3634      C3635   1.419       .  A
C3635      C3636   1.411       .  A
C3635      H3645   1.084       .  S
C3636      C3637   1.410       .  A
C3637      H3646   1.084       .  S
C3638      C3639   1.413       .  A
C3638      H3647   1.084       .  S
C3639      C3640   1.416       .  A
C3640      H3648   1.084       .  S
C3649      C3650   1.402       .  A
C3649      C3654   1.405       .  A
C3649      H3665   1.083   1_565  S
C3650      C3651   1.404       .  A
C3650      H3666   1.083       .  S
C3651      C3661   1.410       .  A
C3651      C3652   1.412       .  A
C3652      C3658   1.410       .  A
C3652      C3653   1.419       .  A
C3653      C3655   1.414       .  A
C3653      C3654   1.411       .  A
C3654      C3662   1.407       .  A
C3655      C3664   1.412       .  A
C3655      C3656   1.404       .  A
C3656      C3657   1.403       .  A
C3656      H3667   1.083       .  S
C3657      C3658   1.406       .  A
C3657      H3668   1.083       .  S
C3658      C3659   1.410       .  A
C3659      C3660   1.412       .  A
C3659      H3669   1.084       .  S
C3660      C3661   1.409       .  A
C3661      H3670   1.084       .  S
C3662      C3663   1.408       .  A
C3662      H3671   1.084   1_565  S
C3663      C3664   1.406       .  A
C3664      H3672   1.084       .  S
C3673      C3674   1.402       .  A
C3673      C3678   1.405       .  A
C3673      H3689   1.083       .  S
C3674      C3675   1.405       .  A
C3674      H3690   1.084       .  S
C3675      C3685   1.407       .  A
C3675      C3676   1.411       .  A
C3676      C3682   1.413       .  A
C3676      C3677   1.420       .  A
C3677      C3679   1.412       .  A
C3677      C3678   1.412       .  A
C3678      C3686   1.409       .  A
C3679      C3688   1.412       .  A
C3679      C3680   1.405       .  A
C3680      C3681   1.404       .  A
C3680      H3691   1.083       .  S
C3681      C3682   1.405       .  A
C3681      H3692   1.083       .  S
C3682      C3683   1.413       .  A
C3683      C3684   1.409       .  A
C3683      H3693   1.084       .  S
C3684      C3685   1.410       .  A
C3685      H3694   1.084       .  S
C3686      C3687   1.410       .  A
C3686      H3695   1.084       .  S
C3687      C3688   1.410       .  A
C3688      H3696   1.084       .  S
C3697      C3698   1.404       .  A
C3697      C3702   1.405       .  A
C3697      H3713   1.083       .  S
C3698      C3699   1.406       .  A
C3698      H3714   1.084       .  S
C3699      C3709   1.410       .  A
C3699      C3700   1.409       .  A
C3700      C3706   1.414       .  A
C3700      C3701   1.422       .  A
C3701      C3703   1.409       .  A
C3701      C3702   1.414       .  A
C3702      C3710   1.415       .  A
C3703      C3712   1.408       .  A
C3703      C3704   1.405   1_565  A
C3704      C3705   1.403       .  A
C3704      H3715   1.083   1_455  S
C3705      C3706   1.405   1_545  A
C3705      H3716   1.083       .  S
C3706      C3707   1.414       .  A
C3707      C3708   1.411       .  A
C3707      H3717   1.084       .  S
C3708      C3709   1.415       .  A
C3709      H3718   1.083       .  S
C3710      C3711   1.409       .  A
C3710      H3719   1.084       .  S
C3711      C3712   1.410       .  A
C3712      H3720   1.084   1_465  S
C3721      C3722   1.404       .  A
C3721      C3726   1.405       .  A
C3721      H3737   1.083       .  S
C3722      C3723   1.406       .  A
C3722      H3738   1.084       .  S
C3723      C3733   1.410       .  A
C3723      C3724   1.410       .  A
C3724      C3730   1.413       .  A
C3724      C3725   1.420       .  A
C3725      C3727   1.410       .  A
C3725      C3726   1.414       .  A
C3726      C3734   1.413       .  A
C3727      C3736   1.406       .  A
C3727      C3728   1.404   1_455  A
C3728      C3729   1.402       .  A
C3728      H3739   1.084       .  S
C3729      C3730   1.404   1_655  A
C3729      H3740   1.083       .  S
C3730      C3731   1.412       .  A
C3731      C3732   1.410       .  A
C3731      H3741   1.084   1_455  S
C3732      C3733   1.414       .  A
C3733      H3742   1.084       .  S
C3734      C3735   1.408       .  A
C3734      H3743   1.083       .  S
C3735      C3736   1.407       .  A
C3736      H3744   1.085   1_455  S
C3745      C3746   1.402       .  A
C3745      C3750   1.404   1_455  A
C3745      H3761   1.083       .  S
C3746      C3747   1.405   1_455  A
C3746      H3762   1.083       .  S
C3747      C3757   1.407       .  A
C3747      C3748   1.410       .  A
C3748      C3754   1.414       .  A
C3748      C3749   1.419       .  A
C3749      C3751   1.409       .  A
C3749      C3750   1.414       .  A
C3750      C3758   1.412       .  A
C3751      C3760   1.408       .  A
C3751      C3752   1.406       .  A
C3752      C3753   1.403       .  A
C3752      H3763   1.084       .  S
C3753      C3754   1.404       .  A
C3753      H3764   1.083       .  S
C3754      C3755   1.412       .  A
C3755      C3756   1.408       .  A
C3755      H3765   1.082       .  S
C3756      C3757   1.408       .  A
C3757      H3766   1.084   1_655  S
C3758      C3759   1.410       .  A
C3758      H3767   1.084   1_655  S
C3759      C3760   1.414       .  A
C3760      H3768   1.084       .  S
C3769      C3770   1.394       .  A
C3769      C3774   1.402       .  A
C3769      H3785   1.084   1_655  S
C3770      C3771   1.401       .  A
C3770      H3786   1.084       .  S
C3771      C3781   1.396       .  A
C3771      C3772   1.415       .  A
C3772      C3778   1.411       .  A
C3772      C3773   1.404       .  A
C3773      C3775   1.416       .  A
C3773      C3774   1.410       .  A
C3774      C3782   1.392       .  A
C3775      C3784   1.401       .  A
C3775      C3776   1.402       .  A
C3776      C3777   1.397       .  A
C3776      H3787   1.084       .  S
C3777      C3778   1.403       .  A
C3777      H3788   1.084       .  S
C3778      C3779   1.396       .  A
C3779      C3780   1.402       .  A
C3779      H3789   1.085       .  S
C3780      C3781   1.395       .  A
C3781      H3790   1.085       .  S
C3782      C3783   1.400       .  A
C3782      H3791   1.085   1_655  S
C3783      C3784   1.398       .  A
C3784      H3792   1.085       .  S
C3793      C3794   1.394       .  A
C3793      C3798   1.401       .  A
C3793      H3809   1.084       .  S
C3794      C3795   1.403       .  A
C3794      H3810   1.084       .  S
C3795      C3805   1.391       .  A
C3795      C3796   1.410       .  A
C3796      C3802   1.416       .  A
C3796      C3797   1.405       .  A
C3797      C3799   1.411       .  A
C3797      C3798   1.414       .  A
C3798      C3806   1.396       .  A
C3799      C3808   1.398       .  A
C3799      C3800   1.404       .  A
C3800      C3801   1.398       .  A
C3800      H3811   1.084       .  S
C3801      C3802   1.402       .  A
C3801      H3812   1.084       .  S
C3802      C3803   1.403       .  A
C3803      C3804   1.399       .  A
C3803      H3813   1.084       .  S
C3804      C3805   1.403       .  A
C3805      H3814   1.086       .  S
C3806      C3807   1.396       .  A
C3806      H3815   1.081       .  S
C3807      C3808   1.402       .  A
C3808      H3816   1.085       .  S
C3817      C3818   1.396       .  A
C3817      C3822   1.402       .  A
C3817      H3833   1.084       .  S
C3818      C3819   1.403       .  A
C3818      H3834   1.084       .  S
C3819      C3829   1.394       .  A
C3819      C3820   1.410       .  A
C3820      C3826   1.415       .  A
C3820      C3821   1.407       .  A
C3821      C3823   1.411       .  A
C3821      C3822   1.414       .  A
C3822      C3830   1.398       .  A
C3823      C3832   1.400       .  A
C3823      C3824   1.404       .  A
C3824      C3825   1.399       .  A
C3824      H3835   1.084       .  S
C3825      C3826   1.402       .  A
C3825      H3836   1.084       .  S
C3826      C3827   1.404       .  A
C3827      C3828   1.400       .  A
C3827      H3837   1.084       .  S
C3828      C3829   1.405       .  A
C3829      H3838   1.085       .  S
C3830      C3831   1.398       .  A
C3830      H3839   1.081       .  S
C3831      C3832   1.402       .  A
C3832      H3840   1.085       .  S
C3841      C3842   1.395       .  A
C3841      C3846   1.402       .  A
C3841      H3857   1.084   1_655  S
C3842      C3843   1.401       .  A
C3842      H3858   1.084       .  S
C3843      C3853   1.399       .  A
C3843      C3844   1.416       .  A
C3844      C3850   1.410       .  A
C3844      C3845   1.403       .  A
C3845      C3847   1.415       .  A
C3845      C3846   1.411       .  A
C3846      C3854   1.393       .  A
C3847      C3856   1.396       .  A
C3847      C3848   1.401       .  A
C3848      C3849   1.395       .  A
C3848      H3859   1.084       .  S
C3849      C3850   1.403       .  A
C3849      H3860   1.084       .  S
C3850      C3851   1.390       .  A
C3851      C3852   1.402       .  A
C3851      H3861   1.085       .  S
C3852      C3853   1.397       .  A
C3853      H3862   1.085       .  S
C3854      C3855   1.398       .  A
C3854      H3863   1.085   1_655  S
C3855      C3856   1.396       .  A
C3856      H3864   1.083       .  S
C3865      C3866   1.402       .  A
C3865      C3870   1.404       .  A
C3865      H3881   1.083       .  S
C3866      C3867   1.405       .  A
C3866      H3882   1.083       .  S
C3867      C3877   1.410       .  A
C3867      C3868   1.412       .  A
C3868      C3874   1.411       .  A
C3868      C3869   1.420       .  A
C3869      C3871   1.413       .  A
C3869      C3870   1.411       .  A
C3870      C3878   1.408       .  A
C3871      C3880   1.412       .  A
C3871      C3872   1.405       .  A
C3872      C3873   1.404       .  A
C3872      H3883   1.083       .  S
C3873      C3874   1.406       .  A
C3873      H3884   1.083       .  S
C3874      C3875   1.411       .  A
C3875      C3876   1.414       .  A
C3875      H3885   1.084       .  S
C3876      C3877   1.410       .  A
C3877      H3886   1.084       .  S
C3878      C3879   1.408       .  A
C3878      H3887   1.084       .  S
C3879      C3880   1.408       .  A
C3880      H3888   1.082       .  S
C3889      C3890   1.401       .  A
C3889      C3894   1.404       .  A
C3889      H3905   1.083       .  S
C3890      C3891   1.404       .  A
C3890      H3906   1.084       .  S
C3891      C3901   1.409       .  A
C3891      C3892   1.412       .  A
C3892      C3898   1.411       .  A
C3892      C3893   1.420       .  A
C3893      C3895   1.414       .  A
C3893      C3894   1.411       .  A
C3894      C3902   1.407       .  A
C3895      C3904   1.414       .  A
C3895      C3896   1.405       .  A
C3896      C3897   1.404       .  A
C3896      H3907   1.083       .  S
C3897      C3898   1.406       .  A
C3897      H3908   1.083       .  S
C3898      C3899   1.412       .  A
C3899      C3900   1.413       .  A
C3899      H3909   1.084       .  S
C3900      C3901   1.410       .  A
C3901      H3910   1.084       .  S
C3902      C3903   1.408       .  A
C3902      H3911   1.084       .  S
C3903      C3904   1.408       .  A
C3904      H3912   1.084       .  S
C3913      C3914   1.402       .  A
C3913      C3918   1.405       .  A
C3913      H3929   1.083   1_655  S
C3914      C3915   1.405   1_565  A
C3914      H3930   1.083       .  S
C3915      C3925   1.411       .  A
C3915      C3916   1.413       .  A
C3916      C3922   1.410       .  A
C3916      C3917   1.420       .  A
C3917      C3919   1.414       .  A
C3917      C3918   1.410   1_545  A
C3918      C3926   1.407       .  A
C3919      C3928   1.414       .  A
C3919      C3920   1.405       .  A
C3920      C3921   1.404       .  A
C3920      H3931   1.083       .  S
C3921      C3922   1.406       .  A
C3921      H3932   1.083       .  S
C3922      C3923   1.410       .  A
C3923      C3924   1.413       .  A
C3923      H3933   1.084       .  S
C3924      C3925   1.410       .  A
C3925      H3934   1.084   1_545  S
C3926      C3927   1.408   1_565  A
C3926      H3935   1.084   1_655  S
C3927      C3928   1.408       .  A
C3928      H3936   1.084       .  S
C3937      C3938   1.400       .  A
C3937      C3942   1.404       .  A
C3937      H3953   1.084   1_556  S
C3938      C3939   1.404       .  A
C3938      H3954   1.083       .  S
C3939      C3949   1.407       .  A
C3939      C3940   1.416       .  A
C3940      C3946   1.410       .  A
C3940      C3941   1.409       .  A
C3941      C3943   1.415       .  A
C3941      C3942   1.411       .  A
C3942      C3950   1.402       .  A
C3943      C3952   1.398       .  A
C3943      C3944   1.401       .  A
C3944      C3945   1.395       .  A
C3944      H3955   1.084       .  S
C3945      C3946   1.403       .  A
C3945      H3956   1.084       .  S
C3946      C3947   1.394       .  A
C3947      C3948   1.404       .  A
C3947      H3957   1.085       .  S
C3948      C3949   1.403       .  A
C3949      H3958   1.084       .  S
C3950      C3951   1.404       .  A
C3950      H3959   1.085   1_556  S
C3951      C3952   1.397       .  A
C3952      H3960   1.082       .  S
C3961      C3962   1.396       .  A
C3961      C3966   1.403       .  A
C3961      H3977   1.084       .  S
C3962      C3963   1.402       .  A
C3962      H3978   1.084       .  S
C3963      C3973   1.398       .  A
C3963      C3964   1.414       .  A
C3964      C3970   1.411       .  A
C3964      C3965   1.408       .  A
C3965      C3967   1.415       .  A
C3965      C3966   1.410       .  A
C3966      C3974   1.395       .  A
C3967      C3976   1.407       .  A
C3967      C3968   1.403       .  A
C3968      C3969   1.400       .  A
C3968      H3979   1.084       .  S
C3969      C3970   1.404       .  A
C3969      H3980   1.084   1_455  S
C3970      C3971   1.402       .  A
C3971      C3972   1.403       .  A
C3971      H3981   1.085   1_455  S
C3972      C3973   1.397       .  A
C3973      H3982   1.081       .  S
C3974      C3975   1.404       .  A
C3974      H3983   1.085       .  S
C3975      C3976   1.402       .  A
C3976      H3984   1.084       .  S
C3985      C3986   1.398       .  A
C3985      C3990   1.404       .  A
C3985      H4001   1.084       .  S
C3986      C3987   1.402       .  A
C3986      H4002   1.084       .  S
C3987      C3997   1.403       .  A
C3987      C3988   1.416       .  A
C3988      C3994   1.410       .  A
C3988      C3989   1.407       .  A
C3989      C3991   1.416       .  A
C3989      C3990   1.410       .  A
C3990      C3998   1.397       .  A
C3991      C4000   1.400       .  A
C3991      C3992   1.402       .  A
C3992      C3993   1.396       .  A
C3992      H4003   1.084       .  S
C3993      C3994   1.403       .  A
C3993      H4004   1.084       .  S
C3994      C3995   1.394       .  A
C3995      C3996   1.402       .  A
C3995      H4005   1.085       .  S
C3996      C3997   1.399       .  A
C3997      H4006   1.085       .  S
C3998      C3999   1.402       .  A
C3998      H4007   1.085       .  S
C3999      C4000   1.398       .  A
C4000      H4008   1.084       .  S
C4009      C4010   1.401       .  A
C4009      C4014   1.405       .  A
C4009      H4025   1.084   1_556  S
C4010      C4011   1.404       .  A
C4010      H4026   1.084       .  S
C4011      C4021   1.409       .  A
C4011      C4012   1.416       .  A
C4012      C4018   1.409       .  A
C4012      C4013   1.410       .  A
C4013      C4015   1.415       .  A
C4013      C4014   1.411       .  A
C4014      C4022   1.403       .  A
C4015      C4024   1.400       .  A
C4015      C4016   1.401       .  A
C4016      C4017   1.396       .  A
C4016      H4027   1.084       .  S
C4017      C4018   1.403       .  A
C4017      H4028   1.084       .  S
C4018      C4019   1.394       .  A
C4019      C4020   1.403       .  A
C4019      H4029   1.084       .  S
C4020      C4021   1.403       .  A
C4021      H4030   1.084       .  S
C4022      C4023   1.405       .  A
C4022      H4031   1.085   1_556  S
C4023      C4024   1.398       .  A
C4024      H4032   1.084       .  S
C4033      C4034   1.405       .  A
C4033      C4038   1.405       .  A
C4033      H4049   1.083       .  S
C4034      C4035   1.407       .  A
C4034      H4050   1.083       .  S
C4035      C4045   1.412       .  A
C4035      C4036   1.409       .  A
C4036      C4042   1.414       .  A
C4036      C4037   1.424       .  A
C4037      C4039   1.410       .  A
C4037      C4038   1.414       .  A
C4038      C4046   1.417       .  A
C4039      C4048   1.412       .  A
C4039      C4040   1.406       .  A
C4040      C4041   1.405       .  A
C4040      H4051   1.083       .  S
C4041      C4042   1.405       .  A
C4041      H4052   1.083       .  S
C4042      C4043   1.417       .  A
C4043      C4044   1.412       .  A
C4043      H4053   1.084       .  S
C4044      C4045   1.416       .  A
C4045      H4054   1.084       .  S
C4046      C4047   1.410       .  A
C4046      H4055   1.084       .  S
C4047      C4048   1.411       .  A
C4048      H4056   1.084       .  S
C4057      C4058   1.404       .  A
C4057      C4062   1.405       .  A
C4057      H4073   1.083       .  S
C4058      C4059   1.406       .  A
C4058      H4074   1.083       .  S
C4059      C4069   1.410       .  A
C4059      C4060   1.410       .  A
C4060      C4066   1.412   1_455  A
C4060      C4061   1.419       .  A
C4061      C4063   1.411   1_455  A
C4061      C4062   1.414       .  A
C4062      C4070   1.413       .  A
C4063      C4072   1.406       .  A
C4063      C4064   1.404       .  A
C4064      C4065   1.401       .  A
C4064      H4075   1.083       .  S
C4065      C4066   1.404       .  A
C4065      H4076   1.084       .  S
C4066      C4067   1.409       .  A
C4067      C4068   1.409   1_655  A
C4067      H4077   1.084       .  S
C4068      C4069   1.412       .  A
C4069      H4078   1.084       .  S
C4070      C4071   1.407       .  A
C4070      H4079   1.084       .  S
C4071      C4072   1.406   1_455  A
C4072      H4080   1.084   1_556  S
C4081      C4082   1.403       .  A
C4081      C4086   1.405       .  A
C4081      H4097   1.083       .  S
C4082      C4083   1.405       .  A
C4082      H4098   1.083       .  S
C4083      C4093   1.414       .  A
C4083      C4084   1.413       .  A
C4084      C4090   1.410       .  A
C4084      C4085   1.423       .  A
C4085      C4087   1.414       .  A
C4085      C4086   1.410       .  A
C4086      C4094   1.410       .  A
C4087      C4096   1.416       .  A
C4087      C4088   1.405       .  A
C4088      C4089   1.405       .  A
C4088      H4099   1.083       .  S
C4089      C4090   1.407       .  A
C4089      H4100   1.083       .  S
C4090      C4091   1.413       .  A
C4091      C4092   1.415       .  A
C4091      H4101   1.084       .  S
C4092      C4093   1.411       .  A
C4093      H4102   1.084       .  S
C4094      C4095   1.410       .  A
C4094      H4103   1.084       .  S
C4095      C4096   1.410       .  A
C4096      H4104   1.084       .  S
C4105      C4106   1.400       .  A
C4105      C4110   1.404       .  A
C4105      H4121   1.084       .  S
C4106      C4107   1.404       .  A
C4106      H4122   1.084       .  S
C4107      C4117   1.404       .  A
C4107      C4108   1.410   1_556  A
C4108      C4114   1.413       .  A
C4108      C4109   1.417       .  A
C4109      C4111   1.411       .  A
C4109      C4110   1.412   1_554  A
C4110      C4118   1.407       .  A
C4111      C4120   1.409       .  A
C4111      C4112   1.405       .  A
C4112      C4113   1.403       .  A
C4112      H4123   1.083       .  S
C4113      C4114   1.404       .  A
C4113      H4124   1.083       .  S
C4114      C4115   1.411       .  A
C4115      C4116   1.407       .  A
C4115      H4125   1.083       .  S
C4116      C4117   1.406   1_554  A
C4117      H4126   1.085       .  S
C4118      C4119   1.407   1_556  A
C4118      H4127   1.084       .  S
C4119      C4120   1.411       .  A
C4120      H4128   1.084       .  S
C4129      C4130   1.401       .  A
C4129      C4134   1.404       .  A
C4129      H4145   1.083       .  S
C4130      C4131   1.404       .  A
C4130      H4146   1.083   1_455  S
C4131      C4141   1.405       .  A
C4131      C4132   1.410   1_565  A
C4132      C4138   1.415       .  A
C4132      C4133   1.419       .  A
C4133      C4135   1.409       .  A
C4133      C4134   1.413   1_545  A
C4134      C4142   1.410       .  A
C4135      C4144   1.409       .  A
C4135      C4136   1.406       .  A
C4136      C4137   1.404       .  A
C4136      H4147   1.083       .  S
C4137      C4138   1.404       .  A
C4137      H4148   1.083       .  S
C4138      C4139   1.413       .  A
C4139      C4140   1.407       .  A
C4139      H4149   1.084       .  S
C4140      C4141   1.406   1_545  A
C4141      H4150   1.084   1_455  S
C4142      C4143   1.409   1_565  A
C4142      H4151   1.084       .  S
C4143      C4144   1.414       .  A
C4144      H4152   1.084       .  S
C4153      C4154   1.404       .  A
C4153      C4158   1.406   1_655  A
C4153      H4169   1.084       .  S
C4154      C4155   1.406   1_655  A
C4154      H4170   1.084   1_554  S
C4155      C4165   1.408       .  A
C4155      C4156   1.410       .  A
C4156      C4162   1.414       .  A
C4156      C4157   1.417       .  A
C4157      C4159   1.410       .  A
C4157      C4158   1.413       .  A
C4158      C4166   1.412       .  A
C4159      C4168   1.405       .  A
C4159      C4160   1.404       .  A
C4160      C4161   1.400       .  A
C4160      H4171   1.084       .  S
C4161      C4162   1.402       .  A
C4161      H4172   1.083       .  S
C4162      C4163   1.407       .  A
C4163      C4164   1.404       .  A
C4163      H4173   1.084       .  S
C4164      C4165   1.409       .  A
C4165      H4174   1.084   1_454  S
C4166      C4167   1.412       .  A
C4166      H4175   1.084   1_455  S
C4167      C4168   1.409       .  A
C4168      H4176   1.084       .  S
C4177      C4178   1.403       .  A
C4177      C4182   1.405       .  A
C4177      H4193   1.083   1_565  S
C4178      C4179   1.405       .  A
C4178      H4194   1.083       .  S
C4179      C4189   1.414       .  A
C4179      C4180   1.414   1_554  A
C4180      C4186   1.408       .  A
C4180      C4181   1.418       .  A
C4181      C4183   1.415       .  A
C4181      C4182   1.410   1_556  A
C4182      C4190   1.407       .  A
C4183      C4192   1.410       .  A
C4183      C4184   1.403       .  A
C4184      C4185   1.401       .  A
C4184      H4195   1.083       .  S
C4185      C4186   1.405       .  A
C4185      H4196   1.083       .  S
C4186      C4187   1.404       .  A
C4187      C4188   1.412       .  A
C4187      H4197   1.084       .  S
C4188      C4189   1.410   1_556  A
C4189      H4198   1.084       .  S
C4190      C4191   1.408   1_554  A
C4190      H4199   1.084   1_565  S
C4191      C4192   1.404       .  A
C4192      H4200   1.084       .  S
C4201      C4202   1.404       .  A
C4201      C4206   1.406       .  A
C4201      H4217   1.083       .  S
C4202      C4203   1.404       .  A
C4202      H4218   1.083       .  S
C4203      C4213   1.413       .  A
C4203      C4204   1.414       .  A
C4204      C4210   1.410   1_565  A
C4204      C4205   1.419       .  A
C4205      C4207   1.413   1_565  A
C4205      C4206   1.410       .  A
C4206      C4214   1.410       .  A
C4207      C4216   1.410   1_545  A
C4207      C4208   1.404       .  A
C4208      C4209   1.401       .  A
C4208      H4219   1.083       .  S
C4209      C4210   1.404       .  A
C4209      H4220   1.084       .  S
C4210      C4211   1.405       .  A
C4211      C4212   1.407   1_545  A
C4211      H4221   1.085       .  S
C4212      C4213   1.406       .  A
C4213      H4222   1.084       .  S
C4214      C4215   1.412       .  A
C4214      H4223   1.084       .  S
C4215      C4216   1.410       .  A
C4216      H4224   1.084   1_565  S
C4225      C4226   1.401       .  A
C4225      C4230   1.404       .  A
C4225      H4241   1.083       .  S
C4226      C4227   1.404       .  A
C4226      H4242   1.084       .  S
C4227      C4237   1.404       .  A
C4227      C4228   1.410   1_455  A
C4228      C4234   1.414       .  A
C4228      C4229   1.417       .  A
C4229      C4231   1.410       .  A
C4229      C4230   1.413   1_655  A
C4230      C4238   1.409       .  A
C4231      C4240   1.407       .  A
C4231      C4232   1.405       .  A
C4232      C4233   1.402       .  A
C4232      H4243   1.083       .  S
C4233      C4234   1.404       .  A
C4233      H4244   1.083       .  S
C4234      C4235   1.410       .  A
C4235      C4236   1.406       .  A
C4235      H4245   1.083       .  S
C4236      C4237   1.406   1_655  A
C4237      H4246   1.085       .  S
C4238      C4239   1.409   1_455  A
C4238      H4247   1.084       .  S
C4239      C4240   1.411       .  A
C4240      H4248   1.084       .  S
