geometry optimzed in LAMMPS
_audit_creation_date              2020-11-30 
_audit_creation_method            'lammps2cif' 
_symmetry_space_group_name_H-M    'P1' 
_symmetry_Int_Tables_number       1 
_symmetry_cell_setting            triclinic 
loop_ 
_symmetry_equiv_pos_as_xyz 
  x,y,z 
_cell_length_a                    39.837811285576734 
_cell_length_b                    39.98372256889209 
_cell_length_c                    30.923763178741936 
_cell_angle_alpha                 89.98774137848994 
_cell_angle_beta                  89.86613535206668 
_cell_angle_gamma                 90.02175406845329 
loop_ 
_atom_site_label 
_atom_site_type_symbol 
_atom_site_fract_x 
_atom_site_fract_y 
_atom_site_fract_z 
_atom_site_charge 
O1          O  0.66375865  0.42279619  0.55346704    -0.58140
C2          C  0.65283730  0.32899213  0.61608547     0.74490
O3          O  0.67145092  0.41228846  0.69923537    -0.59300
C4          C  0.66044408  0.45323509  0.56431610     0.74460
C5          C  0.57843892  0.40604730  0.63285024     0.76850
Cd6        Cd  0.65004367  0.40034382  0.62579834     1.37470
O7          O  0.66503857  0.34752436  0.58663164    -0.58140
O8          O  0.59358043  0.39646591  0.59908019    -0.56950
C9          C  0.70215737  0.40909006  0.68904051     0.76810
O10         O  0.59670433  0.41397699  0.66486244    -0.59320
O11         O  0.64045638  0.34372815  0.64856156    -0.57770
O12         O  0.65362758  0.45887062  0.60365689    -0.57760
O13         O  0.70841034  0.40288664  0.64970163    -0.56930
O14         O  0.34670569  0.34687030  0.58638006    -0.58140
C15         C  0.35148810  0.45223174  0.56264349     0.74490
O16         O  0.34018522  0.41287096  0.69803426    -0.59300
C17         C  0.35905363  0.32844772  0.61575793     0.74460
C18         C  0.43341588  0.40591955  0.63233783     0.76850
Cd19       Cd  0.36185980  0.39987328  0.62488387     1.37460
O20         O  0.34931899  0.42167669  0.55189718    -0.58140
O21         O  0.41854317  0.39638962  0.59843637    -0.56950
C22         C  0.30953753  0.40905977  0.68806962     0.76810
O23         O  0.41489522  0.41368931  0.66426926    -0.59320
O24         O  0.35714072  0.45819644  0.60216696    -0.57770
O25         O  0.37161668  0.34330873  0.64795591    -0.57760
O26         O  0.30343537  0.40194259  0.64898302    -0.56930
O27         O  0.34940615  0.09082980  0.55185910    -0.58140
C28         C  0.35896975  0.18398917  0.61580520     0.74490
O29         O  0.33997345  0.09957254  0.69792757    -0.59300
C30         C  0.35187257  0.06027031  0.56248193     0.74460
C31         C  0.43342143  0.10695544  0.63244689     0.76850
Cd32       Cd  0.36184720  0.11257488  0.62487191     1.37460
O33         O  0.34674817  0.16556799  0.58633566    -0.58140
O34         O  0.41851868  0.11673968  0.59868994    -0.56950
C35         C  0.30934768  0.10332712  0.68782115     0.76810
O36         O  0.41492027  0.09870568  0.66421050    -0.59320
O37         O  0.37140007  0.16912883  0.64809339    -0.57770
O38         O  0.35763139  0.05425622  0.60197022    -0.57760
O39         O  0.30334142  0.11035944  0.64868204    -0.56930
O40         O  0.66283449  0.09110646  0.55250260    -0.58140
C41         C  0.65284519  0.18455014  0.61583211     0.74490
O42         O  0.59682419  0.09899831  0.66444319    -0.59300
C43         C  0.66006945  0.06059607  0.56327696     0.74460
C44         C  0.70223339  0.10458135  0.68852127     0.76850
Cd45       Cd  0.65005027  0.11317758  0.62529489     1.37460
O46         O  0.66524670  0.16610406  0.58644471    -0.58140
O47         O  0.70848768  0.11076490  0.64916780    -0.56950
C48         C  0.57845853  0.10737552  0.63271896     0.76810
O49         O  0.67153078  0.10126530  0.69868611    -0.59320
O50         O  0.64026580  0.16972046  0.64812577    -0.57770
O51         O  0.65409446  0.05474103  0.60279162    -0.57760
O52         O  0.59349969  0.11743216  0.59910185    -0.56930
O53         O  0.84653354  0.34789961  0.91645016    -0.58140
C54         C  0.85288521  0.45317030  0.94006792     0.74490
O55         O  0.91485027  0.41523236  0.83802729    -0.59300
C56         C  0.85769233  0.32939595  0.88628803     0.74460
C57         C  0.80918875  0.40954153  0.81474030     0.76850
Cd58       Cd  0.86172324  0.40070016  0.87735790     1.37470
O59         O  0.85004788  0.42263346  0.95063787    -0.58140
O60         O  0.80314915  0.40294905  0.85403958    -0.56950
C61         C  0.93335151  0.40349395  0.86777818     0.76810
O62         O  0.83981677  0.41322645  0.80441467    -0.59320
O63         O  0.85870377  0.45913745  0.90055240    -0.57770
O64         O  0.86932779  0.34416475  0.85335881    -0.57760
O65         O  0.91846684  0.39194701  0.90069311    -0.56930
O66         O  0.16269743  0.42196450  0.94972181    -0.58140
C67         C  0.15878198  0.32875934  0.88566583     0.74490
O68         O  0.09691990  0.41451467  0.83793935    -0.59300
C69         C  0.15896198  0.45241486  0.93924697     0.74460
C70         C  0.20236816  0.41021017  0.81417428     0.76850
Cd71       Cd  0.15006401  0.39973377  0.87687017     1.37470
O72         O  0.16231543  0.34743151  0.91854564    -0.58140
O73         O  0.20856987  0.40536922  0.85383846    -0.56950
C74         C  0.07831440  0.40141863  0.86668208     0.76810
O75         O  0.17163366  0.41174436  0.80362907    -0.59320
O76         O  0.15202616  0.34321922  0.85038904    -0.57770
O77         O  0.15215870  0.45819633  0.89999576    -0.57760
O78         O  0.09312380  0.38821841  0.89847365    -0.56930
O79         O  0.16212060  0.16578011  0.91821025    -0.58140
C80         C  0.16002744  0.06029301  0.93766062     0.74490
O81         O  0.09644949  0.10108278  0.83678621    -0.59300
C82         C  0.15777203  0.18457750  0.88563077     0.74460
C83         C  0.20200406  0.10278565  0.81368343     0.76850
Cd84       Cd  0.14982138  0.11345300  0.87648959     1.37460
O85         O  0.16407141  0.09066227  0.94839820    -0.58140
O86         O  0.20823540  0.10795741  0.85326270    -0.56950
C87         C  0.07798903  0.10930665  0.86854289     0.76810
O88         O  0.17125789  0.10106691  0.80321474    -0.59320
O89         O  0.15252819  0.05480280  0.89853491    -0.57770
O90         O  0.15012748  0.17024595  0.85059001    -0.57760
O91         O  0.09295357  0.11917572  0.90219092    -0.56930
O92         O  0.84926484  0.09148301  0.95062909    -0.58140
C93         C  0.85836476  0.18492210  0.88685884     0.74490
O94         O  0.91449537  0.10060013  0.83747163    -0.59300
C95         C  0.85126190  0.06093923  0.93976042     0.74460
C96         C  0.80903445  0.10469478  0.81462107     0.76850
Cd97       Cd  0.86137013  0.11349941  0.87759413     1.37460
O98         O  0.84606412  0.16646368  0.91631695    -0.58140
O99         O  0.80289302  0.11156300  0.85381039    -0.56950
C100        C  0.93296727  0.10767391  0.86961506     0.76810
O101        O  0.83967828  0.10076056  0.80453825    -0.59320
O102        O  0.87109514  0.17008611  0.85469174    -0.57770
O103        O  0.85647335  0.05503029  0.90008098    -0.57760
O104        O  0.91803251  0.11636035  0.90393066    -0.56930
O105        O  0.34674341  0.84731906  0.41502472    -0.58140
C106        C  0.35229450  0.95277612  0.43785045     0.74490
O107        O  0.41513093  0.91392194  0.33691237    -0.59300
C108        C  0.35753497  0.82879569  0.38467165     0.74460
C109        C  0.30964914  0.90968748  0.31271586     0.76850
Cd110      Cd  0.36172068  0.90009842  0.37575108     1.37470
O111        O  0.34834271  0.92233747  0.44834092    -0.58140
O112        O  0.30334351  0.90329221  0.35199855    -0.56950
C113        C  0.43340837  0.90332941  0.36759261     0.76810
O114        O  0.34037556  0.91275117  0.30254919    -0.59320
O115        O  0.35952067  0.95852790  0.39866146    -0.57770
O116        O  0.36892628  0.84354697  0.35159126    -0.57760
O117        O  0.41826856  0.89250992  0.40073657    -0.56930
O118        O  0.66363064  0.66644078  0.41854853    -0.58140
C119        C  0.66045543  0.56123085  0.44040809     0.74490
O120        O  0.59722104  0.60070684  0.33878529    -0.59300
C121        C  0.65839962  0.68492851  0.38588320     0.74460
C122        C  0.70265610  0.60223744  0.31576003     0.76850
Cd123      Cd  0.65048413  0.61373156  0.37825540     1.37470
O124        O  0.66346381  0.59173680  0.45104620    -0.58140
O125        O  0.70888962  0.60835562  0.35511525    -0.56950
C126        C  0.57868484  0.60989811  0.37001901     0.76810
O127        O  0.67191595  0.60008243  0.30539782    -0.59320
O128        O  0.65402639  0.55536793  0.40106303    -0.57770
O129        O  0.65007917  0.67024442  0.35134054    -0.57760
O130        O  0.59357481  0.62040171  0.40339928    -0.56930
O131        O  0.34699357  0.66590392  0.41579385    -0.58140
C132        C  0.35177444  0.56010722  0.43854007     0.74490
O133        O  0.34056859  0.60002874  0.30377350    -0.59300
C134        C  0.35822129  0.68432108  0.38558302     0.74460
C135        C  0.43365232  0.60828889  0.36980908     0.76850
Cd136      Cd  0.36196834  0.61294098  0.37691469     1.37470
O137        O  0.34812499  0.59053861  0.44925957    -0.58140
O138        O  0.41840627  0.61761596  0.40362199    -0.56950
C139        C  0.30986361  0.60332811  0.31393629     0.76810
O140        O  0.41547026  0.60005024  0.33785128    -0.59320
O141        O  0.35893116  0.55446159  0.39930049    -0.57770
O142        O  0.37012597  0.66944568  0.35291955    -0.57760
O143        O  0.30361953  0.60998623  0.35315523    -0.56930
O144        O  0.66319120  0.84781863  0.41768922    -0.58140
C145        C  0.65922640  0.95287883  0.43895637     0.74490
O146        O  0.67169643  0.91335517  0.30374449    -0.59300
C147        C  0.65875225  0.82917474  0.38497180     0.74460
C148        C  0.57841600  0.90211657  0.36746351     0.76850
Cd149      Cd  0.65019039  0.90021028  0.37672529     1.37470
O150        O  0.66332910  0.92245885  0.44937348    -0.58140
O151        O  0.59333895  0.89015810  0.39998989    -0.56950
C152        C  0.70242463  0.91170042  0.31429564     0.76810
O153        O  0.59691690  0.91382521  0.33762113    -0.59320
O154        O  0.65192172  0.95861029  0.39984085    -0.57770
O155        O  0.65117144  0.84368174  0.35000749    -0.57760
O156        O  0.70860485  0.90611339  0.35379473    -0.56930
O157        O  0.84864762  0.59105913  0.05458734    -0.58140
C158        C  0.85520439  0.68459304  0.11969100     0.74490
O159        O  0.84054334  0.59975081  0.20017234    -0.59300
C160        C  0.85297690  0.56064011  0.06490984     0.74460
C161        C  0.93377617  0.61039449  0.13531958     0.76850
Cd162      Cd  0.86202899  0.61327149  0.12723206     1.37460
O163        O  0.84831208  0.66611873  0.08751426    -0.58140
O164        O  0.91870244  0.62163948  0.10247257    -0.56950
C165        C  0.80981240  0.60205001  0.18984834     0.76810
O166        O  0.91542216  0.59975450  0.16599016    -0.59320
O167        O  0.86437888  0.66980753  0.15381212    -0.57770
O168        O  0.86034110  0.55489570  0.10400977    -0.57760
O169        O  0.80359890  0.60820792  0.15050291    -0.56930
O170        O  0.16288058  0.92174810  0.05102002    -0.58140
C171        C  0.15622436  0.82861046  0.11706043     0.74490
O172        O  0.17217537  0.91322024  0.19707541    -0.59300
C173        C  0.16024719  0.95229356  0.06164588     0.74460
C174        C  0.07889656  0.90335161  0.13296171     0.76850
Cd175      Cd  0.15060614  0.89995003  0.12427145     1.37460
O176        O  0.16505961  0.84689778  0.08543071    -0.58140
O177        O  0.09385123  0.89194445  0.10003186    -0.56950
C178        C  0.20287012  0.91000368  0.18680142     0.76810
O179        O  0.09736238  0.91423876  0.16326555    -0.59320
O180        O  0.14576403  0.84360832  0.15044933    -0.57770
O181        O  0.15431251  0.95825360  0.10113039    -0.57760
O182        O  0.20907176  0.90343635  0.14753092    -0.56930
O183        O  0.17216021  0.59981035  0.19875475    -0.58140
C184        C  0.07879730  0.60969041  0.13444561     0.74490
O185        O  0.16494847  0.66563017  0.08646226    -0.59300
C186        C  0.20285295  0.60277325  0.18833357     0.74460
C187        C  0.15952372  0.56012765  0.06368595     0.76850
Cd188      Cd  0.15049837  0.61281971  0.12590189     1.37460
O189        O  0.09716990  0.59923685  0.16509962    -0.58140
O190        O  0.15291505  0.55436785  0.10305316    -0.56950
C191        C  0.15617417  0.68411948  0.11790411     0.76810
O192        O  0.16317322  0.59058130  0.05307298    -0.59320
O193        O  0.09384502  0.62062510  0.10130295    -0.57770
O194        O  0.20900543  0.60904986  0.14896896    -0.57760
O195        O  0.14575243  0.66933473  0.15148637    -0.56930
O196        O  0.84857825  0.84742120  0.08675832    -0.58140
C197        C  0.85261414  0.95309742  0.06405992     0.74490
O198        O  0.84053685  0.91408454  0.19912218    -0.59300
C199        C  0.85520873  0.82908528  0.11917082     0.74460
C200        C  0.93386160  0.90308237  0.13420153     0.76850
Cd201      Cd  0.86208427  0.90041691  0.12624821     1.37460
O202        O  0.84819117  0.92269043  0.05373170    -0.58140
O203        O  0.91870793  0.89162337  0.10153514    -0.56950
C204        C  0.80982345  0.91161957  0.18874951     0.76810
O205        O  0.91558048  0.91411432  0.16470117    -0.59320
O206        O  0.86042561  0.95876794  0.10302913    -0.57770
O207        O  0.86413347  0.84401595  0.15329644    -0.57760
O208        O  0.80367502  0.90526679  0.14944373    -0.56930
C209        C  0.14789646  0.77385755  0.15322727    -0.13670
C210        C  0.15746238  0.79166692  0.11607890     0.08480
C211        C  0.16729650  0.77381085  0.07896591    -0.13670
C212        C  0.16728243  0.73866536  0.07917141    -0.13670
C213        C  0.15743646  0.72105585  0.11649288     0.08480
C214        C  0.14788405  0.73911099  0.15343106    -0.13670
H215        H  0.14017598  0.78678719  0.18237451     0.12460
H216        H  0.17471558  0.78695674  0.04985323     0.12460
H217        H  0.17469167  0.72532681  0.05021344     0.12460
H218        H  0.14015362  0.72637514  0.18272787     0.12460
C219        C  0.02411482  0.91678134  0.17036236    -0.13670
C220        C  0.04181726  0.90347582  0.13491941     0.08480
C221        C  0.02373017  0.88983565  0.10025119    -0.13670
C222        C  0.98884709  0.88971393  0.10058245    -0.13670
C223        C  0.97095089  0.90324076  0.13558468     0.08480
C224        C  0.98884861  0.91667127  0.17068884    -0.13670
H225        H  0.03747475  0.92735037  0.19758401     0.12460
H226        H  0.03654640  0.87922608  0.07253950     0.12460
H227        H  0.97587907  0.87903777  0.07310300     0.12460
H228        H  0.97563839  0.92718192  0.19814262     0.12460
C229        C  0.98865601  0.59756691  0.17248598    -0.13670
C230        C  0.97085848  0.61001650  0.13670296     0.08480
C231        C  0.98884901  0.62238509  0.10105484    -0.13670
C232        C  0.02372938  0.62216286  0.10081765    -0.13670
C233        C  0.04171725  0.60958018  0.13622981     0.08480
C234        C  0.02391939  0.59735999  0.17225663    -0.13670
H235        H  0.97536976  0.58795530  0.20043805     0.12460
H236        H  0.97595841  0.63224168  0.07300958     0.12460
H237        H  0.03662098  0.63187958  0.07260832     0.12460
H238        H  0.03720320  0.58761268  0.20004574     0.12460
C239        C  0.85884164  0.77429710  0.15660004    -0.13670
C240        C  0.85327279  0.79215316  0.11820363     0.08480
C241        C  0.84708103  0.77432972  0.07982299    -0.13670
C242        C  0.84707367  0.73918289  0.07995248    -0.13670
C243        C  0.85326935  0.72151776  0.11846087     0.08480
C244        C  0.85884427  0.73952859  0.15672519    -0.13670
H245        H  0.86357887  0.78721331  0.18676309     0.12460
H246        H  0.84277682  0.78750314  0.04974455     0.12460
H247        H  0.84276684  0.72588567  0.04997084     0.12460
H248        H  0.86357953  0.72673332  0.18697971     0.12460
C249        C  0.72268760  0.91514829  0.23772105    -0.13670
C250        C  0.72979029  0.91495561  0.28216928     0.08480
C251        C  0.76346632  0.91575507  0.29564216    -0.13670
C252        C  0.78953658  0.91586158  0.26527621    -0.13670
C253        C  0.78243720  0.91488043  0.22084292     0.08480
C254        C  0.74875468  0.91496863  0.20736519    -0.13670
H255        H  0.69699592  0.91443550  0.22639098     0.12460
H256        H  0.76970094  0.91562649  0.32971434     0.12460
H257        H  0.81523722  0.91571361  0.27660632     0.12460
H258        H  0.74251891  0.91423776  0.17330597     0.12460
C259        C  0.24887614  0.60003600  0.29524662    -0.13670
C260        C  0.28260362  0.60045831  0.28176766     0.08480
C261        C  0.28987073  0.59985594  0.23732652    -0.13670
C262        C  0.26390400  0.59985204  0.20696206    -0.13670
C263        C  0.23017237  0.60009039  0.22044674     0.08480
C264        C  0.22291832  0.59967791  0.26489385    -0.13670
H265        H  0.24252032  0.60047018  0.32931583     0.12460
H266        H  0.31561299  0.60028889  0.22600848     0.12460
H267        H  0.27024881  0.60018201  0.17288774     0.12460
H268        H  0.19717871  0.59999053  0.27622800     0.12460
C269        C  0.72277766  0.59833120  0.23914900    -0.13670
C270        C  0.72997001  0.59892514  0.28356976     0.08480
C271        C  0.76367707  0.59844653  0.29693189    -0.13670
C272        C  0.78968374  0.59825421  0.26647810    -0.13670
C273        C  0.78249233  0.59884158  0.22205586     0.08480
C274        C  0.74878375  0.59844014  0.20869643    -0.13670
H275        H  0.69705816  0.59879060  0.22790337     0.12460
H276        H  0.76998172  0.59888183  0.33097834     0.12460
H277        H  0.81540529  0.59865447  0.27772049     0.12460
H278        H  0.74247940  0.59886822  0.17464968     0.12460
C279        C  0.52343220  0.61712935  0.40601966    -0.13670
C280        C  0.54161355  0.60867721  0.36867084     0.08480
C281        C  0.52400978  0.59950654  0.33111720    -0.13670
C282        C  0.48874793  0.59903488  0.33109435    -0.13670
C283        C  0.47074801  0.60765703  0.36865432     0.08480
C284        C  0.48854617  0.61660016  0.40602288    -0.13670
H285        H  0.53618070  0.62424668  0.43551974     0.12460
H286        H  0.53744506  0.59292540  0.30185317     0.12460
H287        H  0.47561874  0.59214487  0.30179513     0.12460
H288        H  0.47549649  0.62339507  0.43550511     0.12460
C289        C  0.66015448  0.73952702  0.34789286    -0.13670
C290        C  0.66126483  0.72176309  0.38699668     0.08480
C291        C  0.66358873  0.73961759  0.42606092    -0.13670
C292        C  0.66369704  0.77475523  0.42583438    -0.13670
C293        C  0.66152474  0.79233963  0.38653724     0.08480
C294        C  0.66029947  0.77429039  0.34766423    -0.13670
H295        H  0.65864617  0.72653020  0.31722604     0.12460
H296        H  0.66444671  0.72648318  0.45666719     0.12460
H297        H  0.66462204  0.78810395  0.45627457     0.12460
H298        H  0.65886996  0.78705964  0.31682583     0.12460
C299        C  0.28979629  0.91283079  0.23603817    -0.13670
C300        C  0.28244744  0.91251017  0.28046335     0.08480
C301        C  0.24870058  0.91315204  0.29383932    -0.13670
C302        C  0.22279967  0.91344456  0.26340118    -0.13670
C303        C  0.23013479  0.91274303  0.21898048     0.08480
C304        C  0.26388890  0.91276722  0.20559696    -0.13670
H305        H  0.31555514  0.91222574  0.22479817     0.12460
H306        H  0.24228518  0.91293586  0.32789377     0.12460
H307        H  0.19703757  0.91330561  0.27465608     0.12460
H308        H  0.27029546  0.91221920  0.17154653     0.12460
C309        C  0.37232708  0.77388453  0.35273988    -0.13670
C310        C  0.35747273  0.79186357  0.38671997     0.08480
C311        C  0.34312325  0.77419262  0.42149678    -0.13670
C312        C  0.34332642  0.73904034  0.42174197    -0.13670
C313        C  0.35791241  0.72126596  0.38723440     0.08480
C314        C  0.37255498  0.73915259  0.35300077    -0.13670
H315        H  0.38384261  0.78666981  0.32561284     0.12460
H316        H  0.33162611  0.78748296  0.44819736     0.12460
H317        H  0.33196107  0.72582687  0.44861380     0.12460
H318        H  0.38420904  0.72629366  0.32604498     0.12460
C319        C  0.48830342  0.88874610  0.40024347    -0.13670
C320        C  0.47048612  0.90304843  0.36578907     0.08480
C321        C  0.48844790  0.91659919  0.33070825    -0.13670
C322        C  0.52371165  0.91622325  0.33063280    -0.13670
C323        C  0.54134212  0.90222200  0.36558999     0.08480
C324        C  0.52318314  0.88831318  0.40012827    -0.13670
H325        H  0.47527615  0.87787143  0.42763109     0.12460
H326        H  0.47529448  0.92765115  0.30364050     0.12460
H327        H  0.53712954  0.92703828  0.30353377     0.12460
H328        H  0.53594236  0.87718789  0.42747233     0.12460
C329        C  0.85061836  0.04028814  0.01618067    -0.13670
C330        C  0.84875992  0.03350561  0.97170846     0.08480
C331        C  0.84653534  0.00007067  0.95791949    -0.13670
C332        C  0.84678791  0.97390630  0.98796903    -0.13670
C333        C  0.84964121  0.98066224  0.03236663     0.08480
C334        C  0.85123149  0.01412775  0.04618387    -0.13670
H335        H  0.85253831  0.06578298  0.02773398     0.12460
H336        H  0.84509307  0.99409821  0.92381311     0.12460
H337        H  0.84560535  0.94837870  0.97637738     0.12460
H338        H  0.85343426  0.02010974  0.08021821     0.12460
C339        C  0.16185534  0.97296691  0.98519644    -0.13670
C340        C  0.16300296  0.97970915  0.02972384     0.08480
C341        C  0.16495505  0.01312384  0.04363593    -0.13740
C342        C  0.16509151  0.03931481  0.01366463    -0.13670
C343        C  0.16290444  0.03262411  0.96919248     0.08480
C344        C  0.16161977  0.99917919  0.95523294    -0.13670
H345        H  0.16019305  0.94747623  0.97356300     0.12460
H346        H  0.16589367  0.01906511  0.07778285     0.12460
H347        H  0.16600160  0.06482296  0.02537098     0.12460
H348        H  0.15990492  0.99326440  0.92113130     0.12460
C349        C  0.98782542  0.10015711  0.82965776    -0.13670
C350        C  0.97005094  0.10654169  0.86813927     0.08480
C351        C  0.98808273  0.11306351  0.90615115    -0.13670
C352        C  0.02296559  0.11365527  0.90583843    -0.13670
C353        C  0.04092234  0.10767286  0.86752630     0.08480
C354        C  0.02309645  0.10067653  0.82936595    -0.13670
H355        H  0.97451325  0.09515798  0.79985946     0.12460
H356        H  0.97521371  0.11801408  0.93637207     0.12460
H357        H  0.03589371  0.11895431  0.93584367     0.12460
H358        H  0.03636106  0.09599828  0.79936798     0.12460
C359        C  0.16196723  0.47301261  0.01562525    -0.13670
C360        C  0.16157441  0.47987437  0.97110174     0.08480
C361        C  0.16208989  0.51336398  0.95724165    -0.13670
C362        C  0.16245637  0.53948705  0.98730662    -0.13670
C363        C  0.16192105  0.53263475  0.03183403     0.08480
C364        C  0.16194394  0.49913846  0.04569260    -0.13670
H365        H  0.16144240  0.44746166  0.02723406     0.12460
H366        H  0.16181003  0.51940011  0.92309813     0.12460
H367        H  0.16230378  0.56504037  0.97569261     0.12460
H368        H  0.16151573  0.49310244  0.07983576     0.12460
C369        C  0.16173904  0.27420866  0.92661447    -0.13670
C370        C  0.16163265  0.29193567  0.88731397     0.08480
C371        C  0.16238406  0.27402964  0.84831063    -0.13670
C372        C  0.16203151  0.23927443  0.84830588    -0.13670
C373        C  0.16096560  0.22136862  0.88730202     0.08480
C374        C  0.16143460  0.23906146  0.92660790    -0.13670
H375        H  0.16110389  0.28745417  0.95714696     0.12460
H376        H  0.16261557  0.28691599  0.81749370     0.12460
H377        H  0.16204693  0.22639084  0.81749268     0.12460
H378        H  0.16060555  0.22580317  0.95713201     0.12460
C379        C  0.85142815  0.47358649  0.01659724    -0.13670
C380        C  0.85041297  0.48052410  0.97211309     0.08480
C381        C  0.84868547  0.51401393  0.95842302    -0.13670
C382        C  0.84851373  0.54007587  0.98859638    -0.13670
C383        C  0.85045303  0.53316616  0.03304010     0.08480
C384        C  0.85163747  0.49965218  0.04674464    -0.13670
H385        H  0.85292137  0.44803967  0.02807294     0.12460
H386        H  0.84786706  0.52010436  0.92431191     0.12460
H387        H  0.84769460  0.56564453  0.97709037     0.12460
H388        H  0.85316010  0.49356090  0.08081327     0.12460
C389        C  0.98833325  0.41852784  0.83177867    -0.13670
C390        C  0.97039782  0.40267583  0.86523319     0.08480
C391        C  0.98822421  0.38564742  0.89753973    -0.13670
C392        C  0.02309004  0.38498069  0.89715703    -0.13670
C393        C  0.04124643  0.40138680  0.86450791     0.08480
C394        C  0.02360728  0.41793103  0.83145488    -0.13670
H395        H  0.97516244  0.43169361  0.80635417     0.12460
H396        H  0.97521130  0.37287149  0.92353057     0.12460
H397        H  0.03584616  0.37179459  0.92292910     0.12460
H398        H  0.03702640  0.43070100  0.80582040     0.12460
C399        C  0.87365774  0.27454159  0.85512509    -0.13670
C400        C  0.85778355  0.29246483  0.88838670     0.08480
C401        C  0.84250110  0.27473908  0.92244796    -0.13670
C402        C  0.84270451  0.23958662  0.92260990    -0.13670
C403        C  0.85825399  0.22186434  0.88875871     0.08480
C404        C  0.87391080  0.23980561  0.85532394    -0.13670
H405        H  0.88592991  0.28737626  0.82859198     0.12460
H406        H  0.83020665  0.28798646  0.94859015     0.12460
H407        H  0.83053843  0.22633168  0.94885995     0.12460
H408        H  0.88632151  0.22698626  0.82890094     0.12460
C409        C  0.76321495  0.10152041  0.70749578    -0.13670
C410        C  0.72945592  0.10220853  0.72083396     0.08480
C411        C  0.72209982  0.10222772  0.76526035    -0.13670
C412        C  0.74799930  0.10244331  0.79572168    -0.13670
C413        C  0.78176445  0.10225749  0.78237726     0.08480
C414        C  0.78911100  0.10135374  0.73796293    -0.13670
H415        H  0.76964092  0.10149978  0.67344371     0.12460
H416        H  0.69633673  0.10289876  0.77647775     0.12460
H417        H  0.74157813  0.10315025  0.82976254     0.12460
H418        H  0.81488014  0.10133720  0.72673438     0.12460
C419        C  0.66353325  0.99966168  0.54527222    -0.13670
C420        C  0.66261230  0.03314110  0.53140877     0.08480
C421        C  0.66216573  0.03998548  0.48688306    -0.13670
C422        C  0.66168086  0.01385437  0.45684960    -0.13670
C423        C  0.66200668  0.98036924  0.47072691     0.08480
C424        C  0.66342267  0.97352821  0.51521800    -0.13670
H425        H  0.66385769  0.99363929  0.57941878     0.12460
H426        H  0.66128389  0.06552440  0.47527198     0.12460
H427        H  0.66060956  0.01987773  0.42273054     0.12460
H428        H  0.66358159  0.94797685  0.52683919     0.12460
C429        C  0.28905651  0.09877214  0.76435756    -0.13670
C430        C  0.28192927  0.10049916  0.71996760     0.08480
C431        C  0.24823073  0.10114211  0.70657367    -0.13670
C432        C  0.22218970  0.10074876  0.73697497    -0.13670
C433        C  0.22933029  0.10002741  0.78140597     0.08480
C434        C  0.26301534  0.09870327  0.79478005    -0.13670
H435        H  0.31477024  0.09834541  0.77562602     0.12460
H436        H  0.24197018  0.10245130  0.67255068     0.12460
H437        H  0.19649548  0.10192675  0.72572106     0.12460
H438        H  0.26928165  0.09815845  0.82883559     0.12460
C439        C  0.34998300  0.03984479  0.48599573    -0.13670
C440        C  0.34919722  0.03292145  0.53049741     0.08480
C441        C  0.34775738  0.99943332  0.54425090    -0.13670
C442        C  0.34773314  0.97335711  0.51412159    -0.13670
C443        C  0.34951352  0.98025559  0.46965685     0.08480
C444        C  0.35031706  0.01376188  0.45588055    -0.13670
H445        H  0.35125674  0.06539411  0.47447373     0.12460
H446        H  0.34713951  0.99335220  0.57837645     0.12460
H447        H  0.34719570  0.94779180  0.52567458     0.12460
H448        H  0.35169108  0.01983396  0.42178660     0.12460
C449        C  0.48858647  0.11528601  0.59667184    -0.13670
C450        C  0.47050141  0.10585378  0.63371709     0.08480
C451        C  0.48821725  0.09630443  0.67102794    -0.13670
C452        C  0.52349144  0.09641086  0.67109669    -0.13670
C453        C  0.54137769  0.10607873  0.63385981     0.08480
C454        C  0.52346381  0.11540067  0.59674387    -0.13670
H455        H  0.47577249  0.12282725  0.56739573     0.12460
H456        H  0.47486121  0.08900798  0.70007438     0.12460
H457        H  0.53671300  0.08919193  0.70019311     0.12460
H458        H  0.53641203  0.12301877  0.56751710     0.12460
C459        C  0.28939432  0.41379886  0.76466472    -0.13670
C460        C  0.28219274  0.41196486  0.72029911     0.08480
C461        C  0.24847638  0.41136262  0.70699224    -0.13670
C462        C  0.22248655  0.41192161  0.73744849    -0.13670
C463        C  0.22968809  0.41277762  0.78185952     0.08480
C464        C  0.26339521  0.41403816  0.79515371    -0.13670
H465        H  0.31512737  0.41419695  0.77586268     0.12460
H466        H  0.24215804  0.40997821  0.67299241     0.12460
H467        H  0.19677476  0.41078412  0.72625121     0.12460
H468        H  0.26970661  0.41466836  0.82919243     0.12460
C469        C  0.34683403  0.51307482  0.54465969    -0.13670
C470        C  0.34862463  0.47964430  0.53076289     0.08480
C471        C  0.34963821  0.47286758  0.48623523    -0.13670
C472        C  0.34990668  0.49904891  0.45624530    -0.13670
C473        C  0.34882643  0.53250764  0.47017324     0.08480
C474        C  0.34676250  0.53924679  0.51465533    -0.13670
H475        H  0.34602110  0.51904294  0.57880883     0.12460
H476        H  0.35118014  0.44736705  0.47460466     0.12460
H477        H  0.35151463  0.49309286  0.42213723     0.12460
H478        H  0.34600205  0.56476875  0.52633095     0.12460
C479        C  0.34307851  0.27379267  0.58036543    -0.13670
C480        C  0.35923050  0.29151696  0.61365094     0.08480
C481        C  0.37577400  0.27358884  0.64627438    -0.13670
C482        C  0.37574531  0.23884169  0.64629234    -0.13670
C483        C  0.35917701  0.22091920  0.61368376     0.08480
C484        C  0.34305526  0.23864753  0.58037901    -0.13670
H485        H  0.33023296  0.28703962  0.55473518     0.12460
H486        H  0.38869726  0.28642842  0.67220065     0.12460
H487        H  0.38865201  0.22599737  0.67222767     0.12460
H488        H  0.33019418  0.22540397  0.55475778     0.12460
C489        C  0.76313276  0.41245610  0.70781884    -0.13670
C490        C  0.72940692  0.41163819  0.72127675     0.08480
C491        C  0.72213374  0.41167834  0.76572409    -0.13670
C492        C  0.74809780  0.41162566  0.79609624    -0.13670
C493        C  0.78183329  0.41190529  0.78262439     0.08480
C494        C  0.78908525  0.41277117  0.73818641    -0.13670
H495        H  0.76949326  0.41245022  0.67374633     0.12460
H496        H  0.69639430  0.41092054  0.77702497     0.12460
H497        H  0.74175277  0.41094116  0.83016176     0.12460
H498        H  0.81482875  0.41286474  0.72686018     0.12460
C499        C  0.66478320  0.47413722  0.48817557    -0.13670
C500        C  0.66333993  0.48084906  0.53270241     0.08480
C501        C  0.66275559  0.51430109  0.54670634    -0.13670
C502        C  0.66292631  0.54051194  0.51675401    -0.13670
C503        C  0.66332147  0.53376706  0.47220463     0.08480
C504        C  0.66459481  0.50033693  0.45822134    -0.13670
H505        H  0.66513767  0.44862208  0.47644314     0.12460
H506        H  0.66161743  0.52023142  0.58085183     0.12460
H507        H  0.66179655  0.56601722  0.52844499     0.12460
H508        H  0.66493976  0.49439715  0.42405171     0.12460
C509        C  0.52340344  0.41611592  0.67139597    -0.13670
C510        C  0.54135824  0.40731363  0.63386878     0.08480
C511        C  0.52351563  0.39877876  0.59637992    -0.13670
C512        C  0.48863243  0.39876192  0.59625052    -0.13670
C513        C  0.47048579  0.40727365  0.63360827     0.08480
C514        C  0.48813520  0.41609298  0.67126740    -0.13670
H515        H  0.53656887  0.42271519  0.70077939     0.12460
H516        H  0.53652551  0.39185661  0.56691785     0.12460
H517        H  0.47586238  0.39182114  0.56669588     0.12460
H518        H  0.47473131  0.42267057  0.70055615     0.12460
C519        C  0.63608064  0.27409579  0.64649804    -0.13670
C520        C  0.65260652  0.29207088  0.61379677     0.08480
C521        C  0.66869649  0.27439755  0.58032720    -0.13670
C522        C  0.66870484  0.23924624  0.58027027    -0.13670
C523        C  0.65261563  0.22147735  0.61367653     0.08480
C524        C  0.63608229  0.23935942  0.64643670    -0.13670
H525        H  0.62319685  0.28688982  0.67256451     0.12460
H526        H  0.68152334  0.28768596  0.55463160     0.12460
H527        H  0.68153495  0.22603212  0.55452912     0.12460
H528        H  0.62320134  0.22649262  0.67246058     0.12460
loop_ 
_geom_bond_atom_site_label_1 
_geom_bond_atom_site_label_2 
_geom_bond_distance 
_geom_bond_site_symmetry_2 
_ccdc_geom_bond_type 
O1            C4   1.269       .  A
O1           Cd6   2.470       .  S
C2           O11   1.264       .  A
C2            O7   1.270       .  A
C2          C520   1.478       .  S
O3            C9   1.269       .  A
O3           Cd6   2.474       .  S
C4           O12   1.266       .  A
C4          C500   1.479       .  S
C5           O10   1.270       .  A
C5            O8   1.264       .  A
C5          C510   1.478       .  S
Cd6          O13   2.444       .  S
Cd6          O12   2.442       .  S
Cd6          O11   2.401       .  S
Cd6           O7   2.507       .  S
Cd6          O10   2.502       .  S
Cd6           O8   2.403       .  S
C9           O13   1.266       .  A
C9          C490   1.479       .  S
O14          C17   1.270       .  A
O14         Cd19   2.505       .  S
C15          O24   1.266       .  A
C15          O20   1.269       .  A
C15         C470   1.479       .  S
O16          C22   1.269       .  A
O16         Cd19   2.475       .  S
C17          O25   1.264       .  A
C17         C480   1.478       .  S
C18          O23   1.270       .  A
C18          O21   1.264       .  A
C18         C513   1.478       .  S
Cd19         O26   2.444       .  S
Cd19         O25   2.403       .  S
Cd19         O24   2.443       .  S
Cd19         O20   2.472       .  S
Cd19         O23   2.503       .  S
Cd19         O21   2.404       .  S
C22          O26   1.266       .  A
C22         C460   1.479       .  S
O27          C30   1.269       .  A
O27         Cd32   2.471       .  S
C28          O37   1.264       .  A
C28          O33   1.270       .  A
C28         C483   1.478       .  S
O29          C35   1.269       .  A
O29         Cd32   2.475       .  S
C30          O38   1.266       .  A
C30         C440   1.479       .  S
C31          O36   1.270       .  A
C31          O34   1.264       .  A
C31         C450   1.478       .  S
Cd32         O39   2.444       .  S
Cd32         O38   2.443       .  S
Cd32         O37   2.403       .  S
Cd32         O33   2.505       .  S
Cd32         O36   2.504       .  S
Cd32         O34   2.402       .  S
C35          O39   1.266       .  A
C35         C430   1.479       .  S
O40          C43   1.269       .  A
O40         Cd45   2.470       .  S
C41          O50   1.264       .  A
C41          O46   1.270       .  A
C41         C523   1.478       .  S
O42          C48   1.270       .  A
O42         Cd45   2.504       .  S
C43          O51   1.266       .  A
C43         C420   1.479       .  S
C44          O49   1.269       .  A
C44          O47   1.266       .  A
C44         C410   1.479       .  S
Cd45         O52   2.402       .  S
Cd45         O51   2.443       .  S
Cd45         O50   2.400       .  S
Cd45         O46   2.507       .  S
Cd45         O49   2.474       .  S
Cd45         O47   2.446       .  S
C48          O52   1.264       .  A
C48         C453   1.478       .  S
O53          C56   1.270       .  A
O53         Cd58   2.506       .  S
C54          O63   1.266       .  A
C54          O59   1.269       .  A
C54         C380   1.479       .  S
O55          C61   1.270       .  A
O55         Cd58   2.507       .  S
C56          O64   1.264       .  A
C56         C400   1.478       .  S
C57          O62   1.269       .  A
C57          O60   1.266       .  A
C57         C493   1.479       .  S
Cd58         O65   2.400       .  S
Cd58         O64   2.398       .  S
Cd58         O63   2.447       .  S
Cd58         O59   2.473       .  S
Cd58         O62   2.472       .  S
Cd58         O60   2.446       .  S
C61          O65   1.264       .  A
C61         C390   1.478       .  S
O66          C69   1.269       .  A
O66         Cd71   2.475       .  S
C67          O76   1.264       .  A
C67          O72   1.270       .  A
C67         C370   1.478       .  S
O68          C74   1.269       .  A
O68         Cd71   2.509       .  S
C69          O77   1.266       .  A
C69         C360   1.479       .  S
C70          O75   1.269       .  A
C70          O73   1.267       .  A
C70         C463   1.479       .  S
Cd71         O78   2.407       .  S
Cd71         O77   2.446       .  S
Cd71         O76   2.405       .  S
Cd71         O72   2.505       .  S
Cd71         O75   2.468       .  S
Cd71         O73   2.446       .  S
C74          O78   1.263       .  A
C74         C393   1.478       .  S
O79          C82   1.269       .  A
O79         Cd84   2.507       .  S
C80          O89   1.266       .  A
C80          O85   1.269       .  A
C80         C343   1.479       .  S
O81          C87   1.269       .  A
O81         Cd84   2.507       .  S
C82          O90   1.264       .  A
C82         C373   1.477       .  S
C83          O88   1.269       .  A
C83          O86   1.266       .  A
C83         C433   1.479       .  S
Cd84         O91   2.410       .  S
Cd84         O90   2.408       .  S
Cd84         O89   2.444       .  S
Cd84         O85   2.470       .  S
Cd84         O88   2.470       .  S
Cd84         O86   2.444       .  S
C87          O91   1.264       .  A
C87         C353   1.478       .  S
O92          C95   1.269       .  A
O92         Cd97   2.470       .  S
C93         O102   1.264       .  A
C93          O98   1.270       .  A
C93         C403   1.478       .  S
O94         C100   1.270       .  A
O94         Cd97   2.505       .  S
C95         O103   1.266       .  A
C95         C330   1.479       .  S
C96         O101   1.269       .  A
C96          O99   1.266       .  A
C96         C413   1.480       .  S
Cd97        O104   2.404       .  S
Cd97        O103   2.446       .  S
Cd97        O102   2.402       .  S
Cd97         O98   2.508       .  S
Cd97        O101   2.474       .  S
Cd97         O99   2.446       .  S
C100        O104   1.264       .  A
C100        C350   1.479       .  S
O105        C108   1.270       .  A
O105       Cd110   2.506       .  S
C106        O115   1.266       .  A
C106        O111   1.269       .  A
C106        C443   1.479       .  S
O107        C113   1.270       .  A
O107       Cd110   2.502       .  S
C108        O116   1.264       .  A
C108        C310   1.478       .  S
C109        O114   1.269       .  A
C109        O112   1.266       .  A
C109        C300   1.479       .  S
Cd110       O117   2.403       .  S
Cd110       O116   2.399       .  S
Cd110       O115   2.443       .  S
Cd110       O111   2.472       .  S
Cd110       O114   2.472       .  S
Cd110       O112   2.444       .  S
C113        O117   1.264       .  A
C113        C320   1.478       .  S
O118        C121   1.269       .  A
O118       Cd123   2.504       .  S
C119        O128   1.266       .  A
C119        O124   1.269       .  A
C119        C503   1.478       .  S
O120        C126   1.269       .  A
O120       Cd123   2.505       .  S
C121        O129   1.264       .  A
C121        C290   1.478       .  S
C122        O127   1.269       .  A
C122        O125   1.267       .  A
C122        C270   1.479       .  S
Cd123       O130   2.410       .  S
Cd123       O129   2.408       .  S
Cd123       O128   2.442       .  S
Cd123       O124   2.472       .  S
Cd123       O127   2.469       .  S
Cd123       O125   2.442       .  S
C126        O130   1.264       .  A
C126        C280   1.478       .  S
O131        C134   1.270       .  A
O131       Cd136   2.507       .  S
C132        O141   1.266       .  A
C132        O137   1.269       .  A
C132        C473   1.479       .  S
O133        C139   1.269       .  A
O133       Cd136   2.474       .  S
C134        O142   1.264       .  A
C134        C313   1.478       .  S
C135        O140   1.270       .  A
C135        O138   1.264       .  A
C135        C283   1.478       .  S
Cd136       O143   2.442       .  S
Cd136       O142   2.400       .  S
Cd136       O141   2.441       .  S
Cd136       O137   2.471       .  S
Cd136       O140   2.501       .  S
Cd136       O138   2.404       .  S
C139        O143   1.266       .  A
C139        C260   1.479       .  S
O144        C147   1.270       .  A
O144       Cd149   2.503       .  S
C145        O154   1.266       .  A
C145        O150   1.269       .  A
C145        C423   1.479       .  S
O146        C152   1.269       .  A
O146       Cd149   2.469       .  S
C147        O155   1.264       .  A
C147        C293   1.478       .  S
C148        O153   1.269       .  A
C148        O151   1.264       .  A
C148        C323   1.478       .  S
Cd149       O156   2.442       .  S
Cd149       O155   2.407       .  S
Cd149       O154   2.443       .  S
Cd149       O150   2.474       .  S
Cd149       O153   2.505       .  S
Cd149       O151   2.408       .  S
C152        O156   1.266       .  A
C152        C250   1.479       .  S
O157        C160   1.269       .  A
O157       Cd162   2.475       .  S
C158        O167   1.264       .  A
C158        O163   1.270       .  A
C158        C243   1.479       .  S
O159        C165   1.269       .  A
O159       Cd162   2.470       .  S
C160        O168   1.266       .  A
C160        C383   1.480       .  S
C161        O166   1.269       .  A
C161        O164   1.264       .  A
C161        C230   1.478       .  S
Cd162       O169   2.443       .  S
Cd162       O168   2.443       .  S
Cd162       O167   2.407       .  S
Cd162       O163   2.505       .  S
Cd162       O166   2.503       .  S
Cd162       O164   2.406       .  S
C165        O169   1.266       .  A
C165        C273   1.479       .  S
O170        C173   1.269       .  A
O170       Cd175   2.475       .  S
C171        O180   1.264       .  A
C171        O176   1.270       .  A
C171        C210   1.478       .  S
O172        C178   1.269       .  A
O172       Cd175   2.469       .  S
C173        O181   1.266       .  A
C173        C340   1.479       .  S
C174        O179   1.270       .  A
C174        O177   1.264       .  A
C174        C220   1.478       .  S
Cd175       O182   2.443       .  S
Cd175       O181   2.443       .  S
Cd175       O180   2.401       .  S
Cd175       O176   2.505       .  S
Cd175       O179   2.504       .  S
Cd175       O177   2.405       .  S
C178        O182   1.266       .  A
C178        C303   1.479       .  S
O183        C186   1.269       .  A
O183       Cd188   2.470       .  S
C184        O193   1.264       .  A
C184        O189   1.270       .  A
C184        C233   1.478       .  S
O185        C191   1.270       .  A
O185       Cd188   2.504       .  S
C186        O194   1.266       .  A
C186        C263   1.479       .  S
C187        O192   1.269       .  A
C187        O190   1.266       .  A
C187        C363   1.479       .  S
Cd188       O195   2.402       .  S
Cd188       O194   2.444       .  S
Cd188       O193   2.404       .  S
Cd188       O189   2.503       .  S
Cd188       O192   2.473       .  S
Cd188       O190   2.444       .  S
C191        O195   1.264       .  A
C191        C213   1.478       .  S
O196        C199   1.270       .  A
O196       Cd201   2.505       .  S
C197        O206   1.266       .  A
C197        O202   1.269       .  A
C197        C333   1.480       .  S
O198        C204   1.269       .  A
O198       Cd201   2.471       .  S
C199        O207   1.264       .  A
C199        C240   1.479       .  S
C200        O205   1.270       .  A
C200        O203   1.264       .  A
C200        C223   1.478       .  S
Cd201       O208   2.441       .  S
Cd201       O207   2.407       .  S
Cd201       O206   2.442       .  S
Cd201       O202   2.477       .  S
Cd201       O205   2.503       .  S
Cd201       O203   2.406       .  S
C204        O208   1.266       .  A
C204        C253   1.479       .  S
C209        C210   1.403       .  A
C209        C214   1.389       .  A
C209        H215   1.083       .  S
C210        C211   1.407       .  A
C211        C212   1.405       .  A
C211        H216   1.083       .  S
C212        C213   1.407       .  A
C212        H217   1.083       .  S
C213        C214   1.403       .  A
C214        H218   1.083       .  S
C219        C220   1.407       .  A
C219        C224   1.405   1_455  A
C219        H225   1.083       .  S
C220        C221   1.403       .  A
C221        C222   1.390   1_455  A
C221        H226   1.083       .  S
C222        C223   1.403       .  A
C222        H227   1.083       .  S
C223        C224   1.407       .  A
C224        H228   1.083       .  S
C229        C230   1.407       .  A
C229        C234   1.405   1_655  A
C229        H235   1.083       .  S
C230        C231   1.403       .  A
C231        C232   1.390   1_655  A
C231        H236   1.083       .  S
C232        C233   1.403       .  A
C232        H237   1.083       .  S
C233        C234   1.407       .  A
C234        H238   1.083       .  S
C239        C240   1.403       .  A
C239        C244   1.390       .  A
C239        H245   1.083       .  S
C240        C241   1.407       .  A
C241        C242   1.405       .  A
C241        H246   1.083       .  S
C242        C243   1.407       .  A
C242        H247   1.083       .  S
C243        C244   1.403       .  A
C244        H248   1.083       .  S
C249        C250   1.404       .  A
C249        C254   1.398       .  A
C249        H255   1.083       .  S
C250        C251   1.406       .  A
C251        C252   1.399       .  A
C251        H256   1.083       .  S
C252        C253   1.404       .  A
C252        H257   1.083       .  S
C253        C254   1.406       .  A
C254        H258   1.083       .  S
C259        C260   1.406       .  A
C259        C264   1.398       .  A
C259        H265   1.083       .  S
C260        C261   1.404       .  A
C261        C262   1.399       .  A
C261        H266   1.083       .  S
C262        C263   1.406       .  A
C262        H267   1.083       .  S
C263        C264   1.404       .  A
C264        H268   1.083       .  S
C269        C270   1.404       .  A
C269        C274   1.398       .  A
C269        H275   1.083       .  S
C270        C271   1.406       .  A
C271        C272   1.398       .  A
C271        H276   1.083       .  S
C272        C273   1.404       .  A
C272        H277   1.083       .  S
C273        C274   1.406       .  A
C274        H278   1.083       .  S
C279        C280   1.403       .  A
C279        C284   1.390       .  A
C279        H285   1.083       .  S
C280        C281   1.407       .  A
C281        C282   1.405       .  A
C281        H286   1.083       .  S
C282        C283   1.407       .  A
C282        H287   1.083       .  S
C283        C284   1.403       .  A
C284        H288   1.083       .  S
C289        C290   1.403       .  A
C289        C294   1.390       .  A
C289        H295   1.083       .  S
C290        C291   1.407       .  A
C291        C292   1.405       .  A
C291        H296   1.083       .  S
C292        C293   1.407       .  A
C292        H297   1.083       .  S
C293        C294   1.403       .  A
C294        H298   1.083       .  S
C299        C300   1.404       .  A
C299        C304   1.399       .  A
C299        H305   1.083       .  S
C300        C301   1.406       .  A
C301        C302   1.398       .  A
C301        H306   1.083       .  S
C302        C303   1.404       .  A
C302        H307   1.083       .  S
C303        C304   1.406       .  A
C304        H308   1.083       .  S
C309        C310   1.403       .  A
C309        C314   1.389       .  A
C309        H315   1.083       .  S
C310        C311   1.407       .  A
C311        C312   1.406       .  A
C311        H316   1.083       .  S
C312        C313   1.407       .  A
C312        H317   1.083       .  S
C313        C314   1.403       .  A
C314        H318   1.083       .  S
C319        C320   1.403       .  A
C319        C324   1.390       .  A
C319        H325   1.083       .  S
C320        C321   1.407       .  A
C321        C322   1.405       .  A
C321        H326   1.083       .  S
C322        C323   1.407       .  A
C322        H327   1.083       .  S
C323        C324   1.403       .  A
C324        H328   1.083       .  S
C329        C330   1.404   1_554  A
C329        C334   1.398       .  A
C329        H335   1.083       .  S
C330        C331   1.406       .  A
C331        C332   1.399   1_545  A
C331        H336   1.083   1_545  S
C332        C333   1.404   1_556  A
C332        H337   1.083       .  S
C333        C334   1.406   1_565  A
C334        H338   1.083       .  S
C339        C340   1.404   1_556  A
C339        C344   1.399       .  A
C339        H345   1.083       .  S
C340        C341   1.406   1_565  A
C341        C342   1.398       .  A
C341        H346   1.083       .  S
C342        C343   1.404   1_554  A
C342        H347   1.083       .  S
C343        C344   1.406   1_545  A
C344        H348   1.083       .  S
C349        C350   1.407       .  A
C349        C354   1.405   1_655  A
C349        H355   1.083       .  S
C350        C351   1.403       .  A
C351        C352   1.390   1_655  A
C351        H356   1.083       .  S
C352        C353   1.403       .  A
C352        H357   1.083       .  S
C353        C354   1.407       .  A
C354        H358   1.083       .  S
C359        C360   1.404   1_554  A
C359        C364   1.399       .  A
C359        H365   1.083       .  S
C360        C361   1.406       .  A
C361        C362   1.399       .  A
C361        H366   1.083       .  S
C362        C363   1.404   1_556  A
C362        H367   1.083       .  S
C363        C364   1.406       .  A
C364        H368   1.083       .  S
C369        C370   1.407       .  A
C369        C374   1.405       .  A
C369        H375   1.083       .  S
C370        C371   1.403       .  A
C371        C372   1.390       .  A
C371        H376   1.083       .  S
C372        C373   1.403       .  A
C372        H377   1.083       .  S
C373        C374   1.407       .  A
C374        H378   1.083       .  S
C379        C380   1.404   1_554  A
C379        C384   1.399       .  A
C379        H385   1.083       .  S
C380        C381   1.406       .  A
C381        C382   1.399       .  A
C381        H386   1.083       .  S
C382        C383   1.404   1_556  A
C382        H387   1.083       .  S
C383        C384   1.406       .  A
C384        H388   1.083       .  S
C389        C390   1.407       .  A
C389        C394   1.405   1_655  A
C389        H395   1.083       .  S
C390        C391   1.403       .  A
C391        C392   1.389   1_655  A
C391        H396   1.083       .  S
C392        C393   1.403       .  A
C392        H397   1.083       .  S
C393        C394   1.407       .  A
C394        H398   1.083       .  S
C399        C400   1.403       .  A
C399        C404   1.389       .  A
C399        H405   1.083       .  S
C400        C401   1.407       .  A
C401        C402   1.406       .  A
C401        H406   1.083       .  S
C402        C403   1.407       .  A
C402        H407   1.083       .  S
C403        C404   1.403       .  A
C404        H408   1.083       .  S
C409        C410   1.406       .  A
C409        C414   1.399       .  A
C409        H415   1.083       .  S
C410        C411   1.404       .  A
C411        C412   1.399       .  A
C411        H416   1.083       .  S
C412        C413   1.406       .  A
C412        H417   1.083       .  S
C413        C414   1.404       .  A
C414        H418   1.083       .  S
C419        C420   1.406   1_565  A
C419        C424   1.399       .  A
C419        H425   1.083       .  S
C420        C421   1.404       .  A
C421        C422   1.398       .  A
C421        H426   1.083       .  S
C422        C423   1.406   1_545  A
C422        H427   1.083       .  S
C423        C424   1.404       .  A
C424        H428   1.083       .  S
C429        C430   1.404       .  A
C429        C434   1.399       .  A
C429        H435   1.083       .  S
C430        C431   1.406       .  A
C431        C432   1.398       .  A
C431        H436   1.083       .  S
C432        C433   1.404       .  A
C432        H437   1.083       .  S
C433        C434   1.406       .  A
C434        H438   1.083       .  S
C439        C440   1.404       .  A
C439        C444   1.398       .  A
C439        H445   1.083       .  S
C440        C441   1.406   1_545  A
C441        C442   1.398       .  A
C441        H446   1.083       .  S
C442        C443   1.404       .  A
C442        H447   1.083       .  S
C443        C444   1.406   1_565  A
C444        H448   1.083       .  S
C449        C450   1.403       .  A
C449        C454   1.389       .  A
C449        H455   1.083       .  S
C450        C451   1.407       .  A
C451        C452   1.405       .  A
C451        H456   1.083       .  S
C452        C453   1.407       .  A
C452        H457   1.083       .  S
C453        C454   1.403       .  A
C454        H458   1.083       .  S
C459        C460   1.404       .  A
C459        C464   1.399       .  A
C459        H465   1.083       .  S
C460        C461   1.406       .  A
C461        C462   1.398       .  A
C461        H466   1.083       .  S
C462        C463   1.404       .  A
C462        H467   1.083       .  S
C463        C464   1.406       .  A
C464        H468   1.083       .  S
C469        C470   1.406       .  A
C469        C474   1.398       .  A
C469        H475   1.083       .  S
C470        C471   1.404       .  A
C471        C472   1.398       .  A
C471        H476   1.083       .  S
C472        C473   1.406       .  A
C472        H477   1.083       .  S
C473        C474   1.404       .  A
C474        H478   1.083       .  S
C479        C480   1.407       .  A
C479        C484   1.405       .  A
C479        H485   1.083       .  S
C480        C481   1.403       .  A
C481        C482   1.389       .  A
C481        H486   1.083       .  S
C482        C483   1.403       .  A
C482        H487   1.083       .  S
C483        C484   1.407       .  A
C484        H488   1.083       .  S
C489        C490   1.406       .  A
C489        C494   1.398       .  A
C489        H495   1.083       .  S
C490        C491   1.404       .  A
C491        C492   1.399       .  A
C491        H496   1.083       .  S
C492        C493   1.406       .  A
C492        H497   1.083       .  S
C493        C494   1.404       .  A
C494        H498   1.083       .  S
C499        C500   1.404       .  A
C499        C504   1.398       .  A
C499        H505   1.083       .  S
C500        C501   1.406       .  A
C501        C502   1.399       .  A
C501        H506   1.083       .  S
C502        C503   1.404       .  A
C502        H507   1.083       .  S
C503        C504   1.406       .  A
C504        H508   1.083       .  S
C509        C510   1.407       .  A
C509        C514   1.405       .  A
C509        H515   1.083       .  S
C510        C511   1.403       .  A
C511        C512   1.390       .  A
C511        H516   1.083       .  S
C512        C513   1.403       .  A
C512        H517   1.083       .  S
C513        C514   1.407       .  A
C514        H518   1.083       .  S
C519        C520   1.403       .  A
C519        C524   1.389       .  A
C519        H525   1.083       .  S
C520        C521   1.407       .  A
C521        C522   1.405       .  A
C521        H526   1.083       .  S
C522        C523   1.407       .  A
C522        H527   1.083       .  S
C523        C524   1.403       .  A
C524        H528   1.083       .  S
