geometry optimzed in LAMMPS
_audit_creation_date              2020-11-30 
_audit_creation_method            'lammps2cif' 
_symmetry_space_group_name_H-M    'P1' 
_symmetry_Int_Tables_number       1 
_symmetry_cell_setting            triclinic 
loop_ 
_symmetry_equiv_pos_as_xyz 
  x,y,z 
_cell_length_a                    31.84509977 
_cell_length_b                    31.707410897848437 
_cell_length_c                    31.80005470268987 
_cell_angle_alpha                 90.87607797510125 
_cell_angle_beta                  91.3150183000353 
_cell_angle_gamma                 90.52314832604482 
loop_ 
_atom_site_label 
_atom_site_type_symbol 
_atom_site_fract_x 
_atom_site_fract_y 
_atom_site_fract_z 
_atom_site_charge 
N1          N  0.59520192  0.67312991  0.98011585    -0.27000
N2          N  0.57645495  0.69495966  0.00997073    -0.34800
C3          C  0.60628112  0.70923501  0.03776846     0.01400
C4          C  0.64557029  0.69675990  0.02409700     0.07400
C5          C  0.63682226  0.67434289  0.98727735    -0.05700
H6          H  0.59957431  0.72334130  0.06806207     0.08100
H7          H  0.65850788  0.65392829  0.97120348     0.09300
Cu8        Cu  0.51050592  0.69899471  0.01328300     0.44200
Cu9        Cu  0.56627935  0.62720539  0.94219322     0.42000
Cu10       Cu  0.45898224  0.63162400  0.93268526     0.41500
N11         N  0.44569001  0.70048135  0.99814524    -0.34400
N12         N  0.42941009  0.67990424  0.96508277    -0.28600
C13         C  0.38759314  0.68404464  0.96465857    -0.04700
C14         C  0.37572898  0.70704586  0.99975711     0.07500
C15         C  0.41377834  0.71694171  0.02032138     0.01300
H16         H  0.36672517  0.66489960  0.94480220     0.08900
H17         H  0.41751934  0.73026661  0.05173032     0.08000
N18         N  0.49040920  0.57600429  0.91947043    -0.35800
N19         N  0.53166396  0.57430412  0.92320899    -0.28000
C20         C  0.54363599  0.53368301  0.92133646    -0.03200
C21         C  0.50800965  0.50843270  0.91633485     0.05400
C22         C  0.47481405  0.53649775  0.91502792     0.03500
H23         H  0.57547764  0.52315504  0.92704876     0.08600
H24         H  0.44171099  0.52862262  0.91480440     0.07400
N25         N  0.57555413  0.29447251  0.99862990    -0.27000
N26         N  0.55243902  0.26847432  0.02084193    -0.34800
C27         C  0.57819031  0.24676311  0.04689333     0.01400
C28         C  0.61951650  0.25882296  0.04003623     0.07400
C29         C  0.61622922  0.28934726  0.00944342    -0.05700
H30         H  0.56741882  0.22670564  0.07171238     0.08100
H31         H  0.64125901  0.31002579  0.99959822     0.09300
Cu32       Cu  0.48637315  0.26839601  0.01826483     0.44200
Cu33       Cu  0.55163187  0.34385927  0.96286564     0.42000
Cu34       Cu  0.44029119  0.34916381  0.95124987     0.43900
N35         N  0.42136674  0.27568085  0.00797987    -0.34400
N36         N  0.40527206  0.30377209  0.98205327    -0.28600
C37         C  0.36339233  0.30438946  0.98626041    -0.04700
C38         C  0.35178397  0.27561954  0.01640999     0.07500
C39         C  0.38978336  0.25816699  0.02956656     0.01300
H40         H  0.34333438  0.32814244  0.97254897     0.08900
H41         H  0.39497257  0.23785105  0.05599298     0.08000
N42         N  0.47989231  0.39826921  0.93402368    -0.35800
N43         N  0.52120077  0.39643755  0.93838695    -0.28000
C44         C  0.53776999  0.43467864  0.93031805    -0.03200
C45         C  0.50528433  0.46201248  0.92062715     0.05400
C46         C  0.46907483  0.43766477  0.92310579     0.03500
H47         H  0.57071887  0.44270691  0.93411641     0.08600
H48         H  0.43701598  0.44850813  0.92010527     0.07400
N49         N  0.69258658  0.90190870  0.62931122    -0.27000
N50         N  0.71779937  0.92960176  0.61181400    -0.34800
C51         C  0.73984007  0.95030789  0.64258974     0.01400
C52         C  0.72873176  0.93448026  0.68135188     0.07400
C53         C  0.69881049  0.90369936  0.67119894    -0.05700
H54         H  0.75849753  0.97834665  0.63745749     0.08100
H55         H  0.67806631  0.88881581  0.69314620     0.09300
Cu56       Cu  0.71569861  0.94274085  0.54744739     0.44200
Cu57       Cu  0.64077502  0.87332431  0.59903108     0.42000
Cu58       Cu  0.63421586  0.88341350  0.48884958     0.43900
N59         N  0.70784819  0.94413858  0.48191346    -0.34400
N60         N  0.68002562  0.92003052  0.46115965    -0.28600
C61         C  0.68016433  0.92986262  0.42029723    -0.04700
C62         C  0.70913603  0.96184283  0.41449827     0.07500
C63         C  0.72581278  0.97049874  0.45443740     0.01300
H64         H  0.65711719  0.91826996  0.39725771     0.08900
H65         H  0.74653748  0.99653597  0.46343036     0.08000
N66         N  0.58448723  0.86024241  0.52299380    -0.35800
N67         N  0.58650649  0.85725081  0.56436069    -0.28000
C68         C  0.54810240  0.84715602  0.57827639    -0.03200
C69         C  0.52063009  0.84341832  0.54392870     0.05400
C70         C  0.54489859  0.85181851  0.50936403     0.03500
H71         H  0.54030510  0.84478868  0.61116454     0.08600
H72         H  0.53405314  0.85439214  0.47708388     0.07400
N73         N  0.31284691  0.90639013  0.61842055    -0.27000
N74         N  0.29129818  0.93399596  0.59595070    -0.34800
C75         C  0.27818732  0.96465363  0.62251938     0.01400
C76         C  0.29092447  0.95497155  0.66347521     0.07400
C77         C  0.31282549  0.91795796  0.65915590    -0.05700
H78         H  0.26382115  0.99363455  0.61233211     0.08100
H79         H  0.33263424  0.90385718  0.68311453     0.09300
Cu80       Cu  0.28489234  0.93047730  0.52929504     0.44200
Cu81       Cu  0.35578749  0.86410631  0.59513272     0.42000
Cu82       Cu  0.35270972  0.84862234  0.48886146     0.43900
N83         N  0.28380676  0.90991799  0.46539983    -0.34400
N84         N  0.30534885  0.87642738  0.45372184    -0.28600
C85         C  0.30207847  0.87129696  0.41196969    -0.04700
C86         C  0.27851728  0.90358944  0.39515615     0.07500
C87         C  0.26711097  0.92762154  0.43020263     0.01300
H88         H  0.32093544  0.84926168  0.39442408     0.08900
H89         H  0.25198483  0.95801947  0.42968134     0.08000
N90         N  0.40761530  0.83872791  0.52327809    -0.35800
N91         N  0.40856074  0.84370635  0.56449365    -0.28000
C92         C  0.44874725  0.84323558  0.57860841    -0.03200
C93         C  0.47445893  0.83811810  0.54432949     0.05400
C94         C  0.44719057  0.83523781  0.50976257     0.03500
H95         H  0.45865809  0.85037428  0.61068114     0.08600
H96         H  0.45564509  0.83427034  0.47692190     0.07400
O97         O  0.76494662  0.97148894  0.99159218    -0.72600
O98         O  0.75317124  0.97878248  0.11611130    -0.73600
O99         O  0.76542413  0.91124391  0.05651980    -0.62200
O100        O  0.75027731  0.03929855  0.05059473    -0.70600
O101        O  0.68151152  0.02919695  0.04279652    -0.70200
O102        O  0.69617777  0.90422719  0.05027296    -0.61400
O103        O  0.68415964  0.97215457  0.10947498    -0.74000
O104        O  0.69617773  0.96343973  0.98371272    -0.72700
Cu105      Cu  0.76090319  0.97549468  0.05394498     1.04600
Cu106      Cu  0.68721561  0.96675188  0.04623310     1.04300
C107        C  0.73261612  0.96621603  0.96772519     0.93600
C108        C  0.71707865  0.97822006  0.13268639     0.92700
C109        C  0.73247444  0.88774380  0.05399026     0.84900
C110        C  0.71301149  0.05412184  0.04668781     0.91100
N111        N  0.72913505  0.98771364  0.34352619    -0.03200
C112        C  0.70650505  0.00726537  0.31288290    -0.00600
C113        C  0.67022435  0.02386220  0.32915497    -0.23500
C114        C  0.66985065  0.01314807  0.37079674    -0.23700
C115        C  0.70618322  0.99087594  0.37888423    -0.00700
H116        H  0.64461963  0.03796443  0.31155428     0.13100
H117        H  0.64387372  0.01735130  0.39176852     0.13100
N118        N  0.68943424  0.23248819  0.06710496    -0.03200
C119        C  0.72060174  0.25150966  0.09062180    -0.00600
C120        C  0.70562721  0.28749237  0.11002426    -0.23500
C121        C  0.66439792  0.29141733  0.09708186    -0.23700
C122        C  0.65509390  0.25740910  0.07067445    -0.00700
H123        H  0.72402464  0.31091545  0.12759452     0.13100
H124        H  0.64462590  0.31836492  0.10292678     0.13100
O125        O  0.01329113  0.89055703  0.72599549    -0.72600
O126        O  0.01175084  0.01815603  0.73460290    -0.73600
O127        O  0.07583775  0.95537363  0.72544835    -0.62200
O128        O  0.95126385  0.95268553  0.73181220    -0.70600
O129        O  0.95472765  0.94844526  0.80130079    -0.70200
O130        O  0.08359723  0.95478722  0.79455967    -0.61400
O131        O  0.01655359  0.01363788  0.80409107    -0.74000
O132        O  0.02079219  0.88860769  0.79554645    -0.72700
Cu133      Cu  0.01325665  0.95425602  0.72711423     1.04600
Cu134      Cu  0.01944215  0.95110163  0.80132879     1.04300
C135        C  0.01545816  0.86977563  0.76014010     0.93600
C136        C  0.01137868  0.03561277  0.77124335     0.92700
C137        C  0.09985647  0.95672234  0.75802862     0.84900
C138        C  0.93293281  0.95065570  0.76689802     0.91100
N139        N  0.97279959  0.24244757  0.80529029    -0.03200
C140        C  0.96200331  0.21025260  0.77846596    -0.00600
C141        C  0.94683386  0.22599495  0.74087872    -0.23500
C142        C  0.94895982  0.26919754  0.74458258    -0.23700
C143        C  0.96511839  0.27857475  0.78441271    -0.00700
H144        H  0.93946136  0.20806854  0.71238536     0.13100
H145        H  0.94407356  0.29118481  0.71927182     0.13100
N146        N  0.27881876  0.98367699  0.73641389    -0.03200
C147        C  0.30491246  0.00372664  0.76508892    -0.00600
C148        C  0.34038582  0.01847551  0.74553105    -0.23500
C149        C  0.33689307  0.00592965  0.70403243    -0.23700
C150        C  0.29909445  0.98448682  0.69920674    -0.00700
H151        H  0.36745603  0.03369138  0.76058146     0.13100
H152        H  0.36095686  0.00893344  0.68074955     0.13100
O153        O  0.24112259  0.04963784  0.02816487    -0.72600
O154        O  0.24815977  0.92053624  0.02040936    -0.73600
O155        O  0.23363828  0.98132573  0.08640461    -0.62200
O156        O  0.25295944  0.98870286  0.96163260    -0.70600
O157        O  0.32168057  0.99280345  0.97271357    -0.70200
O158        O  0.30226579  0.98513242  0.09852465    -0.61400
O159        O  0.31692382  0.92570530  0.03237815    -0.74000
O160        O  0.30969692  0.05170327  0.03880805    -0.72700
Cu161      Cu  0.24154677  0.98489995  0.02365265     1.04600
Cu162      Cu  0.31489813  0.98895232  0.03602676     1.04300
C163        C  0.27504606  0.07114973  0.03468567     0.93600
C164        C  0.28404572  0.90306885  0.02581889     0.92700
C165        C  0.26485463  0.98161247  0.11233012     0.84900
C166        C  0.28991239  0.99257199  0.94724515     0.91100
O167        O  0.98508520  0.89017289  0.30139594    -0.72600
O168        O  0.99685026  0.01689320  0.29503516    -0.73600
O169        O  0.05410591  0.94796709  0.29776229    -0.62200
O170        O  0.92694602  0.95922864  0.29897864    -0.70600
O171        O  0.93079657  0.96740065  0.36824868    -0.70200
O172        O  0.05612513  0.94842907  0.36755780    -0.61400
O173        O  0.00429020  0.02014142  0.36409197    -0.74000
O174        O  0.98327174  0.89550446  0.37056427    -0.72700
Cu175      Cu  0.99053691  0.95338651  0.29581886     1.04600
Cu176      Cu  0.99357616  0.95802486  0.36995011     1.04300
C177        C  0.98228629  0.87262230  0.33714432     0.93600
C178        C  0.00404785  0.03859641  0.32866709     0.92700
C179        C  0.07496153  0.94617957  0.33257188     0.84900
C180        C  0.90887077  0.96562063  0.33405048     0.91100
O181        O  0.99096110  0.21620273  0.13343060    -0.72600
O182        O  0.98314035  0.20230370  0.00720647    -0.73600
O183        O  0.05013401  0.21278795  0.06704115    -0.62200
O184        O  0.92291350  0.20633995  0.07265066    -0.70600
O185        O  0.92117629  0.27578758  0.07002962    -0.70200
O186        O  0.04591897  0.28207961  0.06115802    -0.61400
O187        O  0.97819360  0.27189436  0.00235972    -0.74000
O188        O  0.98936354  0.28588042  0.12757182    -0.72700
Cu189      Cu  0.98676640  0.20686681  0.07041687     1.04600
Cu190      Cu  0.98339379  0.28117370  0.06500828     1.04300
C191        C  0.99276393  0.25314657  0.15015262     0.93600
C192        C  0.97982400  0.23534555  0.98498821     0.92700
C193        C  0.06803077  0.24874956  0.06281916     0.84900
C194        C  0.90181239  0.24051937  0.07217380     0.91100
N195        N  0.04148872  0.25042977  0.32346659    -0.03200
C196        C  0.05904565  0.21318822  0.33464205    -0.00600
C197        C  0.08797937  0.21955617  0.36720738    -0.23500
C198        C  0.08711985  0.26162068  0.37748682    -0.23700
C199        C  0.05818972  0.27994319  0.35044326    -0.00700
H200        H  0.10394343  0.19541503  0.38500158     0.13100
H201        H  0.10318531  0.27654420  0.40421671     0.13100
N202        N  0.25465149  0.93122535  0.32277982    -0.03200
C203        C  0.27574079  0.93690829  0.28611039    -0.00600
C204        C  0.31729306  0.92567435  0.29144138    -0.23500
C205        C  0.32262470  0.91366000  0.33221440    -0.23700
C206        C  0.28411178  0.91730109  0.35109644    -0.00700
H207        H  0.34149968  0.92702202  0.26813397     0.13100
H208        H  0.35176098  0.90320172  0.34661905     0.13100
N209        N  0.27983458  0.25430813  0.04345461    -0.03200
C210        C  0.24855685  0.27711338  0.06124989    -0.00600
C211        C  0.26289214  0.31723296  0.07185303    -0.23500
C212        C  0.30368390  0.31986487  0.05915551    -0.23700
C213        C  0.31354417  0.28109343  0.04175192    -0.00700
H214        H  0.24451061  0.34291205  0.08428941     0.13100
H215        H  0.32330474  0.34793253  0.06012853     0.13100
O216        O  0.01603941  0.64892887  0.13266575    -0.72600
O217        O  0.01373769  0.65770178  0.00818343    -0.73600
O218        O  0.07832397  0.66125990  0.07087167    -0.62200
O219        O  0.95150595  0.64862725  0.06943436    -0.70600
O220        O  0.94696764  0.71831497  0.07485068    -0.70200
O221        O  0.07155948  0.73071398  0.07711621    -0.61400
O222        O  0.00850211  0.72734786  0.01221253    -0.74000
O223        O  0.00935862  0.71818062  0.14010408    -0.72700
Cu224      Cu  0.01524459  0.65175004  0.07020864     1.04600
Cu225      Cu  0.00901210  0.72610373  0.07640519     1.04300
C226        C  0.01165940  0.68138876  0.15620187     0.93600
C227        C  0.01074488  0.69321879  0.99023436     0.92700
C228        C  0.09461901  0.69835081  0.07313244     0.84900
C229        C  0.92940466  0.68211586  0.07169980     0.91100
N230        N  0.98609654  0.66061785  0.33324588    -0.03200
C231        C  0.96385458  0.69065360  0.35384902    -0.00600
C232        C  0.94615243  0.67392375  0.38926808    -0.23500
C233        C  0.95897766  0.63278590  0.39133441    -0.23700
C234        C  0.98360993  0.62532213  0.35678897    -0.00700
H235        H  0.92950766  0.69103067  0.41332183     0.13100
H236        H  0.95418921  0.61179101  0.41734852     0.13100
N237        N  0.30250769  0.72185424  0.02802004    -0.03200
C238        C  0.27148269  0.69519969  0.04117686    -0.00600
C239        C  0.28518912  0.65401874  0.04077362    -0.23500
C240        C  0.32583695  0.65484364  0.02813292    -0.23700
C241        C  0.33602794  0.69645884  0.02055268    -0.00700
H242        H  0.26717004  0.62615619  0.04836998     0.13100
H243        H  0.34557130  0.62764290  0.02335546     0.13100
N244        N  0.98989285  0.66646605  0.81147284    -0.03200
C245        C  0.97887378  0.69227933  0.77890164    -0.00600
C246        C  0.95929431  0.66916674  0.74684389    -0.23500
C247        C  0.95658153  0.62854518  0.76006298    -0.23700
C248        C  0.97634742  0.62707424  0.79915822    -0.00700
H249        H  0.94989685  0.68021737  0.71604048     0.13100
H250        H  0.94681989  0.60177291  0.74054314     0.13100
N251        N  0.75181668  0.95656379  0.75525740    -0.03200
C252        C  0.73012484  0.97453019  0.78714802    -0.00600
C253        C  0.69208722  0.98970375  0.77253089    -0.23500
C254        C  0.68950470  0.98007396  0.73048298    -0.23700
C255        C  0.72622207  0.95969201  0.72054006    -0.00700
H256        H  0.66720297  0.00259700  0.79130330     0.13100
H257        H  0.66227112  0.98426196  0.71002973     0.13100
N258        N  0.71929261  0.70649767  0.05329914    -0.03200
C259        C  0.74782196  0.67807355  0.06779945    -0.00600
C260        C  0.72848484  0.63984125  0.07507815    -0.23500
C261        C  0.68683222  0.64452017  0.06451939    -0.23700
C262        C  0.68184602  0.68553000  0.05117313    -0.00700
H263        H  0.74365041  0.61084204  0.08412595     0.13100
H264        H  0.66338872  0.61957354  0.06300499     0.13100
N265        N  0.03618439  0.53549680  0.78312217    -0.27000
N266        N  0.00496667  0.51811933  0.80363380    -0.34800
C267        C  0.98109833  0.54944611  0.81933082     0.01400
C268        C  0.99887941  0.58812051  0.80902079     0.07400
C269        C  0.03330783  0.57734692  0.78576918    -0.05700
H270        H  0.95051630  0.54456335  0.83265752     0.08100
H271        H  0.05083365  0.59846594  0.76612732     0.09300
Cu272      Cu  0.99329372  0.45289194  0.80242332     0.44200
Cu273      Cu  0.07153493  0.50783931  0.73717093     0.42000
Cu274      Cu  0.06562598  0.40205165  0.72965322     0.43900
N275        N  0.99917429  0.38740840  0.79473694    -0.34400
N276        N  0.02877667  0.37038764  0.77158244    -0.28600
C277        C  0.02355625  0.32847913  0.77014046    -0.04700
C278        C  0.98868479  0.31796535  0.79270165     0.07500
C279        C  0.97361109  0.35615916  0.80772163     0.01300
H280        H  0.04032596  0.30769623  0.74921201     0.08900
H281        H  0.94428055  0.36115526  0.82350135     0.08000
N282        N  0.08504019  0.43687133  0.67925046    -0.35800
N283        N  0.08765727  0.47827332  0.68192781    -0.28000
C284        C  0.09179050  0.49403827  0.64310536    -0.03200
C285        C  0.09135641  0.46054839  0.61460199     0.05400
C286        C  0.08721779  0.42480004  0.63874413     0.03500
H287        H  0.09029023  0.52723351  0.63580099     0.08600
H288        H  0.08196513  0.39281387  0.62741733     0.07400
N289        N  0.05031019  0.54224139  0.39125765    -0.27000
N290        N  0.03100400  0.52229132  0.35925992    -0.34800
C291        C  0.00804619  0.55070587  0.33758414     0.01400
C292        C  0.01386347  0.59032356  0.35625284     0.07400
C293        C  0.04102762  0.58334435  0.38984834    -0.05700
H294        H  0.98512241  0.54227980  0.31321367     0.08100
H295        H  0.04813224  0.60547521  0.41535513     0.09300
Cu296      Cu  0.02962757  0.45621992  0.35091587     0.44200
Cu297      Cu  0.07448124  0.51540619  0.44597924     0.42000
Cu298      Cu  0.03622749  0.41383530  0.45354300     0.43900
N299        N  0.02987264  0.39091501  0.36151213    -0.34400
N300        N  0.02877123  0.37717927  0.40046167    -0.28600
C301        C  0.03421588  0.33552495  0.40067774    -0.04700
C302        C  0.03973373  0.32143714  0.36006404     0.07500
C303        C  0.03648438  0.35739839  0.33557655     0.01300
H304        H  0.03880067  0.31750686  0.42902988     0.08900
H305        H  0.04262410  0.35964952  0.30234585     0.08000
N306        N  0.06312367  0.44472737  0.50447017    -0.35800
N307        N  0.07799169  0.48357047  0.50274734    -0.28000
C308        C  0.09143113  0.49573096  0.54170591    -0.03200
C309        C  0.08530423  0.46216549  0.56859958     0.05400
C310        C  0.06751950  0.43045333  0.54371626     0.03500
H311        H  0.10376502  0.52671856  0.54997442     0.08600
H312        H  0.05689507  0.39973680  0.55364373     0.07400
C313        C  0.15552578  0.72273144  0.03186387    -0.01500
C314        C  0.14032537  0.70420320  0.06854510     0.08100
C315        C  0.16881394  0.68889272  0.09888745    -0.01600
C316        C  0.21234770  0.69073295  0.09187197    -0.01600
C317        C  0.22762076  0.70546834  0.05306677     0.08300
C318        C  0.19848019  0.72050787  0.02278910    -0.01800
Br319      Br  0.21440343  0.72933387  0.96574916    -0.00400
Br320      Br  0.11716585  0.74912545  0.99254629    -0.00500
Br321      Br  0.25046214  0.66985912  0.13471978    -0.00400
Br322      Br  0.14788169  0.66511797  0.14992257    -0.00400
C323        C  0.03291936  0.69671615  0.23203064    -0.01500
C324        C  0.00697652  0.67511302  0.20207406     0.08100
C325        C  0.97657566  0.64598419  0.21597762    -0.01600
C326        C  0.97070230  0.64035162  0.25924538    -0.01600
C327        C  0.99653687  0.66203468  0.28927573     0.08300
C328        C  0.02858947  0.68906556  0.27538763    -0.01800
Br329      Br  0.06753786  0.71413906  0.31577549    -0.00400
Br330      Br  0.07488571  0.73620808  0.21384591    -0.00500
Br331      Br  0.92393033  0.60632684  0.27715845    -0.00400
Br332      Br  0.94046311  0.61546573  0.17604700    -0.00400
C333        C  0.81662383  0.66340029  0.03427587    -0.01500
C334        C  0.79424480  0.68239467  0.06742119     0.08100
C335        C  0.81653405  0.69818550  0.10313592    -0.01600
C336        C  0.86072872  0.69796399  0.10445602    -0.01600
C337        C  0.88303575  0.67989667  0.07097142     0.08300
C338        C  0.86086324  0.66213770  0.03607558    -0.01800
Br339      Br  0.89103415  0.63669285  0.99034709    -0.00400
Br340      Br  0.78674825  0.63669558  0.98730351    -0.00500
Br341      Br  0.89069530  0.72057141  0.15342745    -0.00400
Br342      Br  0.78695418  0.71618593  0.15219929    -0.00400
C343        C  0.03991648  0.67112978  0.92108656    -0.01500
C344        C  0.00934388  0.69341409  0.94356766     0.08100
C345        C  0.97439021  0.70983323  0.92171037    -0.01600
C346        C  0.96833188  0.70107581  0.87830462    -0.01600
C347        C  0.99895628  0.67892954  0.85515380     0.08300
C348        C  0.03555554  0.66501275  0.87716744    -0.01800
Br349      Br  0.08084414  0.63709677  0.84943183    -0.00400
Br350      Br  0.08782704  0.64757647  0.95089707    -0.00500
Br351      Br  0.91481602  0.71424954  0.85275607    -0.00400
Br352      Br  0.93247062  0.74091174  0.95204477    -0.00400
C353        C  0.14161637  0.22964601  0.08720356    -0.01500
C354        C  0.11460442  0.25262670  0.06011422     0.08100
C355        C  0.13233539  0.28187679  0.03218326    -0.01600
C356        C  0.17606228  0.28858922  0.03199183    -0.01600
C357        C  0.20289440  0.26634023  0.05969322     0.08300
C358        C  0.18544247  0.23712415  0.08746919    -0.01800
Br359      Br  0.22093069  0.21021795  0.12872074    -0.00400
Br360      Br  0.11901607  0.19000023  0.12652361    -0.00500
Br361      Br  0.19919768  0.32836979  0.99283662    -0.00400
Br362      Br  0.09738139  0.31279531  0.99293269    -0.00400
C363        C  0.98518550  0.24503588  0.26869829    -0.01500
C364        C  0.02578066  0.25853367  0.28156114     0.08100
C365        C  0.05343816  0.27470576  0.25149896    -0.01600
C366        C  0.04132469  0.27519445  0.20879060    -0.01600
C367        C  0.00212178  0.25817657  0.19556971     0.08300
C368        C  0.97356101  0.24421708  0.22565208    -0.01800
Br369      Br  0.91852026  0.22453775  0.20783639    -0.00400
Br370      Br  0.94572979  0.22798360  0.31013916    -0.00500
Br371      Br  0.07996063  0.29655282  0.16807117    -0.00400
Br372      Br  0.10978595  0.29229390  0.26782682    -0.00400
C373        C  0.14039912  0.90249705  0.33589533    -0.01500
C374        C  0.12137370  0.94228731  0.33245546     0.08100
C375        C  0.14690459  0.97863663  0.32977548    -0.01600
C376        C  0.19095581  0.97505118  0.32837078    -0.01600
C377        C  0.20995165  0.93512729  0.32907041     0.08300
C378        C  0.18453030  0.89889807  0.33465738    -0.01800
Br379      Br  0.20972334  0.84394232  0.33874899    -0.00400
Br380      Br  0.10582463  0.85276271  0.34113266    -0.00500
Br381      Br  0.22556000  0.02498152  0.32866519    -0.00400
Br382      Br  0.12152267  0.03353837  0.32887447    -0.00400
C383        C  0.03428038  0.10275116  0.29209270    -0.01500
C384        C  0.01332129  0.08504215  0.32693280     0.08100
C385        C  0.00376996  0.11197186  0.36151049    -0.01600
C386        C  0.01481946  0.15496456  0.36113007    -0.01600
C387        C  0.03858347  0.17130163  0.32819791     0.08300
C388        C  0.04779437  0.14537402  0.29348327    -0.01800
Br389      Br  0.08150657  0.16769818  0.24920246    -0.00400
Br390      Br  0.04867377  0.06892890  0.24346859    -0.00500
Br391      Br  0.99833601  0.19176472  0.40705533    -0.00400
Br392      Br  0.97753779  0.09140335  0.41155440    -0.00400
C393        C  0.95683010  0.80109772  0.30867016    -0.01500
C394        C  0.97840570  0.82564235  0.34030435     0.08100
C395        C  0.99610550  0.80467622  0.37560858    -0.01600
C396        C  0.99274444  0.76053068  0.37860370    -0.01600
C397        C  0.96899191  0.73687285  0.34836848     0.08300
C398        C  0.95003244  0.75752259  0.31419876    -0.01800
Br399      Br  0.91174130  0.72688254  0.27684097    -0.00400
Br400      Br  0.93620188  0.82549463  0.25703766    -0.00500
Br401      Br  0.02256628  0.73221447  0.42371435    -0.00400
Br402      Br  0.02694207  0.83490567  0.42003727    -0.00400
C403        C  0.30657476  0.14070497  0.06214495    -0.01500
C404        C  0.27538184  0.11872311  0.03728805     0.08100
C405        C  0.24617972  0.14325285  0.01391463    -0.01600
C406        C  0.25173278  0.18741888  0.01133638    -0.01600
C407        C  0.28025269  0.20880706  0.03880466     0.08300
C408        C  0.30575254  0.18496770  0.06603107    -0.01800
Br409      Br  0.33527326  0.21239227  0.11287300    -0.00400
Br410      Br  0.35126660  0.11238086  0.09209192    -0.00500
Br411      Br  0.22222005  0.21801854  0.96823486    -0.00400
Br412      Br  0.19678523  0.11862832  0.98710908    -0.00400
C413        C  0.28246467  0.99158265  0.23097996    -0.01500
C414        C  0.26083893  0.95559781  0.24550160     0.08100
C415        C  0.23465451  0.93262635  0.21667212    -0.01600
C416        C  0.23184574  0.94426247  0.17384233    -0.01600
C417        C  0.25817606  0.97659748  0.15856416     0.08300
C418        C  0.28127401  0.00172887  0.18799705    -0.01800
Br419      Br  0.31088554  0.05102988  0.16986583    -0.00400
Br420      Br  0.31758860  0.02524015  0.26929370    -0.00500
Br421      Br  0.19345233  0.91385101  0.13618119    -0.00400
Br422      Br  0.20742597  0.88146445  0.23350819    -0.00400
C423        C  0.29959705  0.79115610  0.06473556    -0.01500
C424        C  0.30110847  0.76761685  0.02684434     0.08100
C425        C  0.29995362  0.78941933  0.98831601    -0.01600
C426        C  0.29175701  0.83323895  0.98782889    -0.01600
C427        C  0.28824181  0.85631215  0.02584515     0.08300
C428        C  0.29379141  0.83521110  0.06427648    -0.01800
Br429      Br  0.29450582  0.86682075  0.11653836    -0.00400
Br430      Br  0.30961154  0.76339864  0.11731544    -0.00500
Br431      Br  0.28572300  0.86191673  0.93506770    -0.00400
Br432      Br  0.31132734  0.76019366  0.93625097    -0.00400
C433        C  0.33093502  0.97825709  0.83560306    -0.01500
C434        C  0.30179272  0.00220089  0.81179299     0.08100
C435        C  0.27119821  0.02550248  0.83284511    -0.01600
C436        C  0.26775450  0.02272221  0.87687569    -0.01600
C437        C  0.29541103  0.99710228  0.90079555     0.08300
C438        C  0.32779100  0.97570131  0.87974327    -0.01800
Br439      Br  0.36720504  0.94109770  0.91046593    -0.00400
Br440      Br  0.37434659  0.94688320  0.80766631    -0.00500
Br441      Br  0.22634001  0.05666507  0.90395129    -0.00400
Br442      Br  0.23582520  0.06366947  0.80165583    -0.00400
C443        C  0.93837388  0.24451332  0.87373205    -0.01500
C444        C  0.97521924  0.23947983  0.85042970     0.08100
C445        C  0.01336891  0.23039581  0.87145963    -0.01600
C446        C  0.01465054  0.22641197  0.91560068    -0.01600
C447        C  0.97778177  0.23196084  0.93869847     0.08300
C448        C  0.93941368  0.23892845  0.91742320    -0.01800
Br449      Br  0.88784425  0.23718878  0.94776357    -0.00400
Br450      Br  0.88640279  0.26010903  0.84593385    -0.00500
Br451      Br  0.06655574  0.21268619  0.94439058    -0.00400
Br452      Br  0.06406205  0.22648035  0.84012788    -0.00400
C453        C  0.17643318  0.94130890  0.77813170    -0.01500
C454        C  0.14640182  0.96211309  0.75232710     0.08100
C455        C  0.16140119  0.98812734  0.71975091    -0.01600
C456        C  0.20459299  0.99695495  0.71669869    -0.01600
C457        C  0.23438645  0.97463505  0.74094881     0.08300
C458        C  0.21992130  0.94525135  0.77028084    -0.01800
Br459      Br  0.25918860  0.90778730  0.79696444    -0.00400
Br460      Br  0.15900802  0.90615255  0.82353140    -0.00500
Br461      Br  0.22228047  0.04309172  0.68190081    -0.00400
Br462      Br  0.12426095  0.01235151  0.67783080    -0.00400
C463        C  0.96694036  0.09305833  0.80085716    -0.01500
C464        C  0.00154142  0.08095356  0.77638631     0.08100
C465        C  0.02516862  0.11211189  0.75624836    -0.01600
C466        C  0.01350406  0.15473925  0.75913780    -0.01600
C467        C  0.97763225  0.16651254  0.78174826     0.08300
C468        C  0.95455515  0.13554049  0.80272369    -0.01800
Br469      Br  0.90392114  0.15030415  0.83115867    -0.00400
Br470      Br  0.93441151  0.05138981  0.83012225    -0.00500
Br471      Br  0.04622447  0.19689682  0.73075717    -0.00400
Br472      Br  0.07426126  0.09684950  0.72567024    -0.00400
C473        C  0.96804863  0.80778052  0.74913356    -0.01500
C474        C  0.00821078  0.82386971  0.75994159     0.08100
C475        C  0.03928372  0.79663081  0.77529459    -0.01600
C476        C  0.03030514  0.75341942  0.77934116    -0.01600
C477        C  0.98860674  0.73816770  0.77462384     0.08300
C478        C  0.95743855  0.76587782  0.75863872    -0.01800
Br479      Br  0.89969282  0.74783260  0.74933476    -0.00400
Br480      Br  0.92754943  0.84304488  0.72071245    -0.00500
Br481      Br  0.07659322  0.71532912  0.78208373    -0.00400
Br482      Br  0.09497665  0.81805073  0.78813892    -0.00400
C483        C  0.86140946  0.92083293  0.78476282    -0.01500
C484        C  0.88614543  0.95239255  0.76615775     0.08100
C485        C  0.86595678  0.98427206  0.74273267    -0.01600
C486        C  0.82188300  0.98467318  0.73812170    -0.01600
C487        C  0.79713043  0.95247845  0.75559789     0.08300
C488        C  0.81725724  0.92017461  0.77827655    -0.01800
Br489      Br  0.78446906  0.87387359  0.79852866    -0.00400
Br490      Br  0.88767042  0.87827851  0.81889800    -0.00500
Br491      Br  0.79531289  0.03184395  0.71087232    -0.00400
Br492      Br  0.89832469  0.02959403  0.71885797    -0.00400
C493        C  0.78747770  0.27446299  0.05825105    -0.01500
C494        C  0.76625351  0.24548817  0.08362168     0.08100
C495        C  0.78907301  0.21328566  0.10350769    -0.01600
C496        C  0.83281320  0.20964097  0.09767386    -0.01600
C497        C  0.85476745  0.24022112  0.07413973     0.08300
C498        C  0.83131086  0.27251031  0.05412720    -0.01800
Br499      Br  0.85777635  0.31495438  0.02010897    -0.00400
Br500      Br  0.75626489  0.31767075  0.02885113    -0.00500
Br501      Br  0.86176813  0.16333383  0.12399212    -0.00400
Br502      Br  0.76117030  0.17629117  0.14171154    -0.00400
C503        C  0.80179224  0.01095692  0.36052947    -0.01500
C504        C  0.77390171  0.98054546  0.34256435     0.08100
C505        C  0.79030790  0.94540267  0.32120611    -0.01600
C506        C  0.83420339  0.94101561  0.31719880    -0.01600
C507        C  0.86229836  0.97121816  0.33558354     0.08300
C508        C  0.84553095  0.00632999  0.35705300    -0.01800
Br509      Br  0.88200232  0.05030146  0.37908124    -0.00400
Br510      Br  0.77988398  0.06054055  0.38812392    -0.00500
Br511      Br  0.85536053  0.89284602  0.28740004    -0.00400
Br512      Br  0.75256501  0.90238010  0.29920483    -0.00400
C513        C  0.67166623  0.15937864  0.08568788    -0.01500
C514        C  0.68905115  0.18789870  0.05703688     0.08100
C515        C  0.71206287  0.17209889  0.02307932    -0.01600
C516        C  0.72005197  0.12844130  0.01928549    -0.01600
C517        C  0.70498847  0.10023773  0.04950484     0.08300
C518        C  0.67983217  0.11591432  0.08214588    -0.01800
Br519      Br  0.65895504  0.07835777  0.12432449    -0.00400
Br520      Br  0.63982676  0.18023893  0.13244529    -0.00500
Br521      Br  0.75028651  0.10735915  0.97197331    -0.00400
Br522      Br  0.73173236  0.21058908  0.98155811    -0.00400
C523        C  0.73894562  0.02269056  0.24341113    -0.01500
C524        C  0.71072204  0.99911363  0.26714445     0.08100
C525        C  0.68300957  0.97001970  0.24662393    -0.01600
C526        C  0.68375640  0.96424613  0.20268253    -0.01600
C527        C  0.71389240  0.98593591  0.17887981     0.08300
C528        C  0.74096705  0.01593362  0.19958325    -0.01800
Br529      Br  0.77831348  0.05140902  0.16809534    -0.00400
Br530      Br  0.77285463  0.06633442  0.27053703    -0.00500
Br531      Br  0.64219968  0.92716912  0.17616992    -0.00400
Br532      Br  0.64384366  0.93731446  0.27891872    -0.00400
C533        C  0.76685226  0.98961531  0.90075995    -0.01500
C534        C  0.73720028  0.96377197  0.92129640     0.08100
C535        C  0.71056293  0.93669210  0.89676750    -0.01600
C536        C  0.71143750  0.93779670  0.85265951    -0.01600
C537        C  0.73755838  0.96706189  0.83250344     0.08300
C538        C  0.76557217  0.99259686  0.85658914    -0.01800
Br539      Br  0.79939583  0.03459458  0.82964582    -0.00400
Br540      Br  0.80895125  0.02234090  0.93185410    -0.00500
Br541      Br  0.67553776  0.89971799  0.81960967    -0.00400
Br542      Br  0.67307151  0.89695646  0.92278052    -0.00400
C543        C  0.74102582  0.77285792  0.01843558    -0.01500
C544        C  0.72460656  0.75189896  0.05332122     0.08100
C545        C  0.71317399  0.77582309  0.08896035    -0.01600
C546        C  0.72032181  0.81969837  0.09063303    -0.01600
C547        C  0.73517637  0.84096571  0.05533158     0.08300
C548        C  0.74606302  0.81729032  0.01930651    -0.01800
Br549      Br  0.76694540  0.84592601  0.97090992    -0.00400
Br550      Br  0.75289012  0.74115506  0.96827318    -0.00500
Br551      Br  0.71189344  0.85050678  0.14221774    -0.00400
Br552      Br  0.68468083  0.74900153  0.13444800    -0.00400
loop_ 
_geom_bond_atom_site_label_1 
_geom_bond_atom_site_label_2 
_geom_bond_distance 
_geom_bond_site_symmetry_2 
_ccdc_geom_bond_type 
N1            N2   1.323   1_556  A
N1            C5   1.340       .  A
N1           Cu9   2.072       .  S
N2            C3   1.353       .  A
N2           Cu8   2.110       .  S
C3            C4   1.393       .  A
C3            H6   1.082       .  S
C4            C5   1.382   1_554  A
C4          C262   1.474       .  S
C5            H7   1.082       .  S
Cu8          N11   2.110   1_554  S
Cu9          N19   2.073       .  S
Cu10         N12   2.077       .  S
Cu10         N18   2.078       .  S
N11          N12   1.322       .  A
N11          C15   1.354   1_556  A
N12          C13   1.339       .  A
C13          C14   1.386       .  A
C13          H16   1.082       .  S
C14          C15   1.395   1_556  A
C14         C241   1.478   1_556  S
C15          H17   1.082       .  S
N18          N19   1.318       .  A
N18          C22   1.347       .  A
N19          C20   1.347       .  A
C20          C21   1.387       .  A
C20          H23   1.083       .  S
C21          C22   1.388       .  A
C21          C45   1.482       .  S
C22          H24   1.081       .  S
N25          N26   1.323   1_556  A
N25          C29   1.344   1_556  A
N25         Cu33   2.089       .  S
N26          C27   1.353       .  A
N26         Cu32   2.104       .  S
C27          C28   1.390       .  A
C27          H30   1.081       .  S
C28          C29   1.386       .  A
C28         C122   1.479       .  S
C29          H31   1.082   1_554  S
Cu32         N35   2.104       .  S
Cu33         N43   2.088       .  S
Cu34         N36   2.083       .  S
Cu34         N42   2.082       .  S
N35          N36   1.322   1_554  A
N35          C39   1.351       .  A
N36          C37   1.344       .  A
C37          C38   1.387   1_556  A
C37          H40   1.082       .  S
C38          C39   1.393       .  A
C38         C213   1.486       .  S
C39          H41   1.077       .  S
N42          N43   1.321       .  A
N42          C46   1.347       .  A
N43          C44   1.349       .  A
C44          C45   1.388       .  A
C44          H47   1.081       .  S
C45          C46   1.386       .  A
C46          H48   1.083       .  S
N49          N50   1.322       .  A
N49          C53   1.342       .  A
N49         Cu57   2.084       .  S
N50          C51   1.350       .  A
N50         Cu56   2.095       .  S
C51          C52   1.390       .  A
C51          H54   1.081       .  S
C52          C53   1.387       .  A
C52         C255   1.474       .  S
C53          H55   1.082       .  S
Cu56         N59   2.094       .  S
Cu57         N67   2.084       .  S
Cu58         N60   2.076       .  S
Cu58         N66   2.076       .  S
N59          N60   1.323       .  A
N59          C63   1.351       .  A
N60          C61   1.341       .  A
C61          C62   1.382       .  A
C61          H64   1.083       .  S
C62          C63   1.388       .  A
C62         C115   1.472       .  S
C63          H65   1.083       .  S
N66          N67   1.320       .  A
N66          C70   1.347       .  A
N67          C68   1.348       .  A
C68          C69   1.387       .  A
C68          H71   1.084       .  S
C69          C70   1.386       .  A
C69          C93   1.479       .  S
C70          H72   1.080       .  S
N73          N74   1.325       .  A
N73          C77   1.341       .  A
N73         Cu81   2.065       .  S
N74          C75   1.353       .  A
N74         Cu80   2.126       .  S
C75          C76   1.395       .  A
C75          H78   1.081       .  S
C76          C77   1.377       .  A
C76         C150   1.478       .  S
C77          H79   1.082       .  S
Cu80         N83   2.124       .  S
Cu81         N91   2.066       .  S
Cu82         N84   2.068       .  S
Cu82         N90   2.070       .  S
N83          N84   1.323       .  A
N83          C87   1.359       .  A
N84          C85   1.337       .  A
C85          C86   1.382       .  A
C85          H88   1.082       .  S
C86          C87   1.397       .  A
C86         C206   1.487       .  S
C87          H89   1.082       .  S
N90          N91   1.317       .  A
N90          C94   1.346       .  A
N91          C92   1.347       .  A
C92          C93   1.387       .  A
C92          H95   1.081       .  S
C93          C94   1.386       .  A
C94          H96   1.085       .  S
O97        Cu105   1.992   1_556  S
O97         C107   1.273       .  A
O98        Cu105   1.999       .  S
O98         C108   1.276       .  A
O99        Cu105   2.046       .  S
O99         C109   1.282       .  A
O100       Cu105   2.058   1_545  S
O100        C110   1.284       .  A
O101       Cu106   1.994   1_545  S
O101        C110   1.274       .  A
O102       Cu106   2.011       .  S
O102        C109   1.277       .  A
O103       Cu106   2.020       .  S
O103        C108   1.280       .  A
O104       Cu106   2.016   1_556  S
O104        C107   1.280       .  A
Cu105      Cu106   2.367       .  S
C107        C534   1.488       .  S
C108        C527   1.491       .  S
C109        C547   1.488       .  S
C110        C517   1.488       .  S
N111        C115   1.358       .  A
N111        C112   1.359   1_565  A
N111        C504   1.447       .  S
C112        C113   1.382       .  A
C112        C524   1.483   1_545  S
C113        C114   1.372       .  A
C113        H116   1.082       .  S
C114        C115   1.382   1_545  A
C114        H117   1.082       .  S
N118        C122   1.361       .  A
N118        C119   1.360       .  A
N118        C514   1.445       .  S
C119        C120   1.383       .  A
C119        C494   1.489       .  S
C120        C121   1.374       .  A
C120        H123   1.082       .  S
C121        C122   1.382       .  A
C121        H124   1.082       .  S
O125       Cu133   2.020       .  S
O125        C135   1.280       .  A
O126       Cu133   2.038   1_545  S
O126        C136   1.283       .  A
O127       Cu133   1.995       .  S
O127        C137   1.274       .  A
O128       Cu133   1.983   1_655  S
O128        C138   1.273       .  A
O129       Cu134   2.062   1_655  S
O129        C138   1.285       .  A
O130       Cu134   2.062       .  S
O130        C137   1.285       .  A
O131       Cu134   1.987   1_545  S
O131        C136   1.273       .  A
O132       Cu134   1.988       .  S
O132        C135   1.274       .  A
Cu133      Cu134   2.367       .  S
C135        C474   1.472       .  S
C136        C464   1.482       .  S
C137        C454   1.506       .  S
C138        C484   1.491       .  S
N139        C143   1.354       .  A
N139        C140   1.357       .  A
N139        C444   1.440       .  S
C140        C141   1.381       .  A
C140        C467   1.482       .  S
C141        C142   1.374       .  A
C141        H144   1.082       .  S
C142        C143   1.383       .  A
C142        H145   1.082       .  S
C143        C278   1.468       .  S
N146        C150   1.361       .  A
N146        C147   1.365   1_565  A
N146        C457   1.452       .  S
C147        C148   1.383       .  A
C147        C434   1.492       .  S
C148        C149   1.374       .  A
C148        H151   1.082       .  S
C149        C150   1.381   1_545  A
C149        H152   1.082       .  S
O153       Cu161   2.056   1_545  S
O153        C163   1.283       .  A
O154       Cu161   2.055       .  S
O154        C164   1.284       .  A
O155       Cu161   2.022       .  S
O155        C165   1.277       .  A
O156       Cu161   2.019   1_556  S
O156        C166   1.278       .  A
O157       Cu162   2.035   1_556  S
O157        C166   1.281       .  A
O158       Cu162   2.042       .  S
O158        C165   1.284       .  A
O159       Cu162   2.009       .  S
O159        C164   1.275       .  A
O160       Cu162   1.999   1_545  S
O160        C163   1.274       .  A
Cu161      Cu162   2.362       .  S
C163        C404   1.509       .  S
C164        C427   1.490       .  S
C165        C417   1.501       .  S
C166        C437   1.500       .  S
O167       Cu175   2.021       .  S
O167        C177   1.278       .  A
O168       Cu175   2.022   1_545  S
O168        C178   1.278   1_655  A
O169       Cu175   2.033   1_455  S
O169        C179   1.280       .  A
O170       Cu175   2.040       .  S
O170        C180   1.281       .  A
O171       Cu176   2.024       .  S
O171        C180   1.279       .  A
O172       Cu176   2.021   1_455  S
O172        C179   1.277       .  A
O173       Cu176   2.008   1_445  S
O173        C178   1.277       .  A
O174       Cu176   2.007       .  S
O174        C177   1.277       .  A
Cu175      Cu176   2.359       .  S
C177        C394   1.499       .  S
C178        C384   1.501       .  S
C179        C374   1.484       .  S
C180        C507   1.497       .  S
O181       Cu189   2.022       .  S
O181        C191   1.279       .  A
O182       Cu189   2.014       .  S
O182        C192   1.276   1_554  A
O183       Cu189   2.030   1_455  S
O183        C193   1.280       .  A
O184       Cu189   2.036       .  S
O184        C194   1.280       .  A
O185       Cu190   1.997       .  S
O185        C194   1.276       .  A
O186       Cu190   1.998   1_455  S
O186        C193   1.276       .  A
O187       Cu190   2.012       .  S
O187        C192   1.278   1_554  A
O188       Cu190   1.997       .  S
O188        C191   1.275       .  A
Cu189      Cu190   2.368       .  S
C191        C367   1.474   1_655  S
C192        C447   1.474       .  S
C193        C354   1.492       .  S
C194        C497   1.501       .  S
N195        C199   1.356       .  A
N195        C196   1.360       .  A
N195        C364   1.440       .  S
C196        C197   1.382       .  A
C196        C387   1.483       .  S
C197        C198   1.369       .  A
C197        H200   1.082       .  S
C198        C199   1.384       .  A
C198        H201   1.082       .  S
C199        C302   1.477       .  S
N202        C206   1.366       .  A
N202        C203   1.372       .  A
N202        C377   1.448       .  S
C203        C204   1.381       .  A
C203        C414   1.498       .  S
C204        C205   1.364       .  A
C204        H207   1.083       .  S
C205        C206   1.383       .  A
C205        H208   1.082       .  S
N209        C213   1.365       .  A
N209        C210   1.364       .  A
N209        C407   1.448       .  S
C210        C211   1.382       .  A
C210        C357   1.490       .  S
C211        C212   1.371       .  A
C211        H214   1.082       .  S
C212        C213   1.382       .  A
C212        H215   1.082       .  S
O216       Cu224   1.989       .  S
O216        C226   1.274       .  A
O217       Cu224   1.984       .  S
O217        C227   1.274   1_554  A
O218       Cu224   2.028       .  S
O218        C228   1.281       .  A
O219       Cu224   2.031   1_655  S
O219        C229   1.281       .  A
O220       Cu225   1.988   1_655  S
O220        C229   1.274       .  A
O221       Cu225   1.995       .  S
O221        C228   1.274       .  A
O222       Cu225   2.042       .  S
O222        C227   1.283   1_554  A
O223       Cu225   2.045       .  S
O223        C226   1.283       .  A
Cu224      Cu225   2.373       .  S
C226        C324   1.486       .  S
C227        C344   1.484       .  S
C228        C314   1.476       .  S
C229        C337   1.477       .  S
N230        C234   1.359       .  A
N230        C231   1.361       .  A
N230        C327   1.446       .  S
C231        C232   1.382       .  A
C231        C397   1.486       .  S
C232        C233   1.372       .  A
C232        H235   1.082       .  S
C233        C234   1.383       .  A
C233        H236   1.082       .  S
C234        C292   1.476   1_655  S
N237        C241   1.366       .  A
N237        C238   1.371       .  A
N237        C424   1.453       .  S
C238        C239   1.381       .  A
C238        C317   1.493       .  S
C239        C240   1.364       .  A
C239        H242   1.082       .  S
C240        C241   1.382       .  A
C240        H243   1.083       .  S
N244        C248   1.366       .  A
N244        C245   1.371       .  A
N244        C347   1.460       .  S
C245        C246   1.380       .  A
C245        C477   1.494       .  S
C246        C247   1.364       .  A
C246        H249   1.082       .  S
C247        C248   1.382       .  A
C247        H250   1.083       .  S
C248        C268   1.468       .  S
N251        C255   1.363       .  A
N251        C252   1.361       .  A
N251        C487   1.450       .  S
C252        C253   1.381       .  A
C252        C537   1.479       .  S
C253        C254   1.367       .  A
C253        H256   1.082   1_565  S
C254        C255   1.382       .  A
C254        H257   1.082       .  S
N258        C262   1.360       .  A
N258        C259   1.363       .  A
N258        C544   1.448       .  S
C259        C260   1.380       .  A
C259        C334   1.484       .  S
C260        C261   1.371       .  A
C260        H263   1.082       .  S
C261        C262   1.383       .  A
C261        H264   1.082       .  S
N265        N266   1.322       .  A
N265        C269   1.332       .  A
N265       Cu273   2.056       .  S
N266        C267   1.353   1_455  A
N266       Cu272   2.098   1_455  S
C267        C268   1.393       .  A
C267        H270   1.082       .  S
C268        C269   1.379   1_655  A
C269        H271   1.083       .  S
Cu272       N275   2.098       .  S
Cu273       N283   2.056       .  S
Cu274       N276   2.063       .  S
Cu274       N282   2.063       .  S
N275        N276   1.323   1_655  A
N275        C279   1.352       .  A
N276        C277   1.338       .  A
C277        C278   1.377   1_455  A
C277        H280   1.082       .  S
C278        C279   1.389       .  A
C279        H281   1.082       .  S
N282        N283   1.316       .  A
N282        C286   1.342       .  A
N283        C284   1.348       .  A
C284        C285   1.385       .  A
C284        H287   1.083       .  S
C285        C286   1.386       .  A
C285        C309   1.473       .  S
C286        H288   1.081       .  S
N289        N290   1.326       .  A
N289        C293   1.340       .  A
N289       Cu297   2.083       .  S
N290        C291   1.352       .  A
N290       Cu296   2.108       .  S
C291        C292   1.390       .  A
C291        H294   1.081   1_455  S
C292        C293   1.381       .  A
C293        H295   1.083       .  S
Cu296       N299   2.103       .  S
Cu297       N307   2.083       .  S
Cu298       N300   2.043       .  S
Cu298       N306   2.047       .  S
N299        N300   1.320       .  A
N299        C303   1.356       .  A
N300        C301   1.334       .  A
C301        C302   1.376       .  A
C301        H304   1.083       .  S
C302        C303   1.394       .  A
C303        H305   1.082       .  S
N306        N307   1.318       .  A
N306        C310   1.339       .  A
N307        C308   1.351       .  A
C308        C309   1.391       .  A
C308        H311   1.081       .  S
C309        C310   1.379       .  A
C310        H312   1.082       .  S
C313        C314   1.408       .  A
C313        C318   1.407       .  A
C313       Br320   1.933   1_554  S
C314        C315   1.404       .  A
C315        C316   1.410       .  A
C315       Br322   1.930       .  S
C316        C317   1.421       .  A
C316       Br321   1.932       .  S
C317        C318   1.413       .  A
C318       Br319   1.919   1_554  S
C323        C324   1.412       .  A
C323        C328   1.413       .  A
C323       Br330   1.928       .  S
C324        C325   1.415   1_455  A
C325        C326   1.407       .  A
C325       Br332   1.936       .  S
C326        C327   1.412       .  A
C326       Br331   1.933       .  S
C327        C328   1.410   1_655  A
C328       Br329   1.923       .  S
C333        C334   1.416       .  A
C333        C338   1.410       .  A
C333       Br340   1.933   1_554  S
C334        C335   1.408       .  A
C335        C336   1.407       .  A
C335       Br342   1.923       .  S
C336        C337   1.411       .  A
C336       Br341   1.933       .  S
C337        C338   1.409       .  A
C338       Br339   1.932   1_554  S
C343        C344   1.410       .  A
C343        C348   1.411       .  A
C343       Br350   1.939       .  S
C344        C345   1.407   1_455  A
C345        C346   1.412       .  A
C345       Br352   1.933       .  S
C346        C347   1.420       .  A
C346       Br351   1.923       .  S
C347        C348   1.423   1_655  A
C348       Br349   1.923       .  S
C353        C354   1.418       .  A
C353        C358   1.413       .  A
C353       Br360   1.932       .  S
C354        C355   1.417       .  A
C355        C356   1.407       .  A
C355       Br362   1.937   1_554  S
C356        C357   1.414       .  A
C356       Br361   1.938   1_554  S
C357        C358   1.409       .  A
C358       Br359   1.926       .  S
C363        C364   1.408   1_655  A
C363        C368   1.410       .  A
C363       Br370   1.922       .  S
C364        C365   1.413       .  A
C365        C366   1.404       .  A
C365       Br372   1.931       .  S
C366        C367   1.408       .  A
C366       Br371   1.932       .  S
C367        C368   1.408   1_455  A
C368       Br369   1.925       .  S
C373        C374   1.409       .  A
C373        C378   1.412       .  A
C373       Br380   1.927       .  S
C374        C375   1.409       .  A
C375        C376   1.410       .  A
C375       Br382   1.926   1_565  S
C376        C377   1.408       .  A
C376       Br381   1.920   1_565  S
C377        C378   1.415       .  A
C378       Br379   1.930       .  S
C383        C384   1.426       .  A
C383        C388   1.414       .  A
C383       Br390   1.934       .  S
C384        C385   1.422       .  A
C385        C386   1.405       .  A
C385       Br392   1.934   1_455  S
C386        C387   1.408       .  A
C386       Br391   1.940   1_455  S
C387        C388   1.404       .  A
C388       Br389   1.929       .  S
C393        C394   1.423       .  A
C393        C398   1.411       .  A
C393       Br400   1.930       .  S
C394        C395   1.421       .  A
C395        C396   1.408       .  A
C395       Br402   1.938   1_655  S
C396        C397   1.412       .  A
C396       Br401   1.939   1_655  S
C397        C398   1.405       .  A
C398       Br399   1.928       .  S
C403        C404   1.425       .  A
C403        C408   1.408       .  A
C403       Br410   1.930       .  S
C404        C405   1.422       .  A
C405        C406   1.414       .  A
C405       Br412   1.925   1_554  S
C406        C407   1.408       .  A
C406       Br411   1.924   1_554  S
C407        C408   1.407       .  A
C408       Br409   1.934       .  S
C413        C414   1.416       .  A
C413        C418   1.409   1_565  A
C413       Br420   1.937   1_565  S
C414        C415   1.414       .  A
C415        C416   1.418       .  A
C415       Br422   1.922       .  S
C416        C417   1.417       .  A
C416       Br421   1.933       .  S
C417        C418   1.410   1_565  A
C418       Br419   1.921       .  S
C423        C424   1.410       .  A
C423        C428   1.411       .  A
C423       Br430   1.923       .  S
C424        C425   1.416   1_554  A
C425        C426   1.416       .  A
C425       Br432   1.928       .  S
C426        C427   1.411   1_556  A
C426       Br431   1.927       .  S
C427        C428   1.411       .  A
C428       Br429   1.927       .  S
C433        C434   1.417   1_565  A
C433        C438   1.413       .  A
C433       Br440   1.935       .  S
C434        C435   1.404       .  A
C435        C436   1.411       .  A
C435       Br442   1.931       .  S
C436        C437   1.420   1_545  A
C436       Br441   1.921       .  S
C437        C438   1.415       .  A
C438       Br439   1.933       .  S
C443        C444   1.411       .  A
C443        C448   1.403       .  A
C443       Br450   1.930       .  S
C444        C445   1.408   1_655  A
C445        C446   1.411       .  A
C445       Br452   1.920       .  S
C446        C447   1.410   1_455  A
C446       Br451   1.928       .  S
C447        C448   1.404       .  A
C448       Br449   1.924       .  S
C453        C454   1.420       .  A
C453        C458   1.418       .  A
C453       Br460   1.926       .  S
C454        C455   1.422       .  A
C455        C456   1.407       .  A
C455       Br462   1.934   1_565  S
C456        C457   1.411       .  A
C456       Br461   1.935   1_565  S
C457        C458   1.410       .  A
C458       Br459   1.925       .  S
C463        C464   1.416   1_655  A
C463        C468   1.408       .  A
C463       Br470   1.934       .  S
C464        C465   1.407       .  A
C465        C466   1.407       .  A
C465       Br472   1.922       .  S
C466        C467   1.414   1_455  A
C466       Br471   1.934       .  S
C467        C468   1.407       .  A
C468       Br469   1.925       .  S
C473        C474   1.406   1_655  A
C473        C478   1.407       .  A
C473       Br480   1.932       .  S
C474        C475   1.403       .  A
C475        C476   1.406       .  A
C475       Br482   1.926       .  S
C476        C477   1.413   1_455  A
C476       Br481   1.915       .  S
C477        C478   1.422       .  A
C478       Br479   1.936       .  S
C483        C484   1.413       .  A
C483        C488   1.416       .  A
C483       Br490   1.929       .  S
C484        C485   1.415       .  A
C485        C486   1.408       .  A
C485       Br492   1.936   1_565  S
C486        C487   1.412       .  A
C486       Br491   1.932   1_565  S
C487        C488   1.412       .  A
C488       Br489   1.921       .  S
C493        C494   1.410       .  A
C493        C498   1.407       .  A
C493       Br500   1.939       .  S
C494        C495   1.408       .  A
C495        C496   1.415       .  A
C495       Br502   1.928       .  S
C496        C497   1.422       .  A
C496       Br501   1.932       .  S
C497        C498   1.422       .  A
C498       Br499   1.938       .  S
C503        C504   1.410   1_545  A
C503        C508   1.409       .  A
C503       Br510   1.932       .  S
C504        C505   1.407       .  A
C505        C506   1.414       .  A
C505       Br512   1.923       .  S
C506        C507   1.415       .  A
C506       Br511   1.921       .  S
C507        C508   1.412   1_565  A
C508       Br509   1.920       .  S
C513        C514   1.412       .  A
C513        C518   1.408       .  A
C513       Br520   1.931       .  S
C514        C515   1.407       .  A
C515        C516   1.414       .  A
C515       Br522   1.923   1_554  S
C516        C517   1.412       .  A
C516       Br521   1.920   1_554  S
C517        C518   1.413       .  A
C518       Br519   1.932       .  S
C523        C524   1.404   1_545  A
C523        C528   1.410       .  A
C523       Br530   1.928       .  S
C524        C525   1.413       .  A
C525        C526   1.407       .  A
C525       Br532   1.937       .  S
C526        C527   1.416       .  A
C526       Br531   1.932       .  S
C527        C528   1.422   1_565  A
C528       Br529   1.936       .  S
C533        C534   1.421       .  A
C533        C538   1.409       .  A
C533       Br540   1.932   1_565  S
C534        C535   1.415       .  A
C535        C536   1.405       .  A
C535       Br542   1.936       .  S
C536        C537   1.412       .  A
C536       Br541   1.937       .  S
C537        C538   1.405       .  A
C538       Br539   1.928   1_565  S
C543        C544   1.410       .  A
C543        C548   1.416       .  A
C543       Br550   1.919   1_554  S
C544        C545   1.411       .  A
C545        C546   1.408       .  A
C545       Br552   1.929       .  S
C546        C547   1.407       .  A
C546       Br551   1.922       .  S
C547        C548   1.412       .  A
C548       Br549   1.927   1_554  S
