geometry optimzed in LAMMPS
_audit_creation_date              2020-11-30 
_audit_creation_method            'lammps2cif' 
_symmetry_space_group_name_H-M    'P1' 
_symmetry_Int_Tables_number       1 
_symmetry_cell_setting            triclinic 
loop_ 
_symmetry_equiv_pos_as_xyz 
  x,y,z 
_cell_length_a                    67.39858433 
_cell_length_b                    67.3389990981726 
_cell_length_c                    67.39662358180315 
_cell_angle_alpha                 90.01565238787911 
_cell_angle_beta                  89.92055180890965 
_cell_angle_gamma                 90.10492676493111 
loop_ 
_atom_site_label 
_atom_site_type_symbol 
_atom_site_fract_x 
_atom_site_fract_y 
_atom_site_fract_z 
_atom_site_charge 
N1          N  0.47691990  0.66274468  0.99836965    -0.27400
N2          N  0.46685051  0.64588965  0.99844348    -0.35200
C3          C  0.44743227  0.64984053  0.99656302     0.01000
C4          C  0.44493834  0.67022597  0.99531957     0.07000
C5          C  0.46405882  0.67791148  0.99658383    -0.06100
H6          H  0.43595463  0.63859607  0.99647351     0.07700
H7          H  0.46836482  0.69337346  0.99704946     0.08900
Cu8        Cu  0.47933247  0.61813609  0.00226411     0.44200
Cu9        Cu  0.50763099  0.66430785  0.00149775     0.42000
Cu10       Cu  0.53232351  0.61660328  0.00391152     0.43900
N11         N  0.49524116  0.59210186  0.00520327    -0.34700
N12         N  0.51482667  0.59159324  0.00513607    -0.29000
C13         C  0.52088705  0.57272443  0.00708449    -0.05100
C14         C  0.50427579  0.56080075  0.00857118     0.07100
C15         C  0.48824273  0.57352167  0.00734262     0.00900
H16         H  0.53624492  0.56812974  0.00772281     0.08600
H17         H  0.47267880  0.56962242  0.00802744     0.07600
N18         N  0.54696136  0.64335834  0.00584381    -0.36200
N19         N  0.53815225  0.66085135  0.00485579    -0.28400
C20         C  0.55203677  0.67513374  0.00652353    -0.03600
C21         C  0.57039340  0.66611685  0.00870219     0.05000
C22         C  0.56655442  0.64598030  0.00834352     0.03100
H23         H  0.54895907  0.69089263  0.00632425     0.08200
H24         H  0.57724867  0.63407101  0.00946643     0.07000
N25         N  0.47156989  0.43891783  0.02230440    -0.27400
N26         N  0.46243608  0.45625896  0.02169344    -0.35200
C27         C  0.44274644  0.45328416  0.02118360     0.01000
C28         C  0.43913444  0.43305932  0.02150802     0.07000
C29         C  0.45782460  0.42441234  0.02210876    -0.06100
H30         H  0.43189195  0.46506555  0.02034171     0.07700
H31         H  0.46131098  0.40875395  0.02167666     0.08900
Cu32       Cu  0.47657426  0.48335597  0.01998394     0.44200
Cu33       Cu  0.50231290  0.43568138  0.02256028     0.42000
Cu34       Cu  0.52921415  0.48217050  0.01713904     0.43900
N35         N  0.49356805  0.50849184  0.01600588    -0.34700
N36         N  0.51311361  0.50803611  0.01483777    -0.29000
C37         C  0.51995643  0.52655915  0.01199736    -0.05100
C38         C  0.50386375  0.53922831  0.01132929     0.07100
C39         C  0.48735830  0.52731391  0.01390894     0.00900
H40         H  0.53546645  0.53045301  0.01050594     0.08600
H41         H  0.47199390  0.53192307  0.01423666     0.07600
N42         N  0.54263674  0.45484673  0.01985105    -0.36200
N43         N  0.53315677  0.43777616  0.02197710    -0.28400
C44         C  0.54661884  0.42300923  0.02260015    -0.03600
C45         C  0.56540488  0.43129596  0.02070424     0.05000
C46         C  0.56220991  0.45147345  0.01898127     0.03100
H47         H  0.54293491  0.40739316  0.02348058     0.08200
H48         H  0.57329932  0.46291789  0.01686085     0.07000
N49         N  0.61033692  0.04500242  0.46760154    -0.27400
N50         N  0.59322753  0.04727584  0.45832678    -0.35200
C51         C  0.59639995  0.04717093  0.43865505     0.01000
C52         C  0.61644696  0.04446266  0.43532482     0.07000
C53         C  0.62487921  0.04324507  0.45402552    -0.06100
H54         H  0.58487435  0.04854271  0.42758430     0.07700
H55         H  0.64042442  0.04142258  0.45754370     0.08900
Cu56       Cu  0.56611486  0.04921479  0.47252115     0.44200
Cu57       Cu  0.61288519  0.04432205  0.49824562     0.42000
Cu58       Cu  0.56611909  0.04686205  0.52559203     0.43900
N59         N  0.54049352  0.04793515  0.48934201    -0.34700
N60         N  0.54044951  0.04695288  0.50891596    -0.29000
C61         C  0.52168399  0.04466439  0.51532439    -0.05100
C62         C  0.50937979  0.04413493  0.49893547     0.07100
C63         C  0.52177305  0.04632289  0.48272218     0.00900
H64         H  0.51744022  0.04281744  0.53070066     0.08600
H65         H  0.51762848  0.04595588  0.46722540     0.07600
N66         N  0.59371300  0.04522183  0.53874940    -0.36200
N67         N  0.61068270  0.04429252  0.52893403    -0.28400
C68         C  0.62564975  0.04309183  0.54203475    -0.03600
C69         C  0.61769897  0.04334160  0.56100583     0.05000
C70         C  0.59740994  0.04457998  0.55830577     0.03100
H71         H  0.64111072  0.04167789  0.53796650     0.08200
H72         H  0.58611069  0.04503554  0.56971347     0.07000
N73         N  0.38893026  0.02411299  0.46503537    -0.27400
N74         N  0.40600391  0.02709278  0.45584746    -0.35200
C75         C  0.40288509  0.02760892  0.43616638     0.01000
C76         C  0.38283626  0.02470365  0.43268325     0.07000
C77         C  0.37445677  0.02266317  0.45139472    -0.06100
H78         H  0.41435998  0.03049077  0.42531041     0.07700
H79         H  0.35895630  0.02030749  0.45487314     0.08900
Cu80       Cu  0.43271512  0.03087751  0.47036874     0.44200
Cu81       Cu  0.38615846  0.02246458  0.49571260     0.42000
Cu82       Cu  0.43215720  0.02508957  0.52360839     0.43900
N83         N  0.45747791  0.03449244  0.48803497    -0.34700
N84         N  0.45737658  0.03230802  0.50752367    -0.29000
C85         C  0.47575678  0.03572624  0.51450241    -0.05100
C86         C  0.48795056  0.04020122  0.49859093     0.07100
C87         C  0.47589152  0.03928766  0.48205868     0.00900
H88         H  0.47992934  0.03483249  0.52996977     0.08600
H89         H  0.48016598  0.04177587  0.46678165     0.07600
N90         N  0.40446854  0.02158388  0.53654468    -0.36200
N91         N  0.38765716  0.02114642  0.52648857    -0.28400
C92         C  0.37239847  0.02105187  0.53938137    -0.03600
C93         C  0.37993696  0.02135813  0.55854278     0.05000
C94         C  0.40036217  0.02166114  0.55605734     0.03100
H95         H  0.35699546  0.02190392  0.53501183     0.08200
H96         H  0.41148763  0.02268225  0.56756547     0.07000
O97         O  0.69260780  0.04776166  0.02815981    -0.73000
O98         O  0.69192814  0.05058016  0.96850024    -0.74000
O99         O  0.69454588  0.01938255  0.99661676    -0.62600
O100        O  0.69011543  0.07919275  0.99995791    -0.71000
O101        O  0.72295284  0.08101469  0.99925023    -0.70600
O102        O  0.72725405  0.02203565  0.99698724    -0.61800
O103        O  0.72472464  0.05250051  0.96867660    -0.74300
O104        O  0.72530981  0.05054564  0.02783736    -0.73100
Cu105      Cu  0.69110332  0.04916413  0.99836710     1.04600
Cu106      Cu  0.72612991  0.05163401  0.99822051     1.04300
C107        C  0.70907189  0.04883810  0.03749050     0.93200
C108        C  0.70841320  0.05147075  0.95912281     0.92300
C109        C  0.71169963  0.01126723  0.99589196     0.84500
C110        C  0.70605972  0.08953270  0.99992983     0.90700
N111        N  0.72165729  0.04074013  0.21843398    -0.27400
N112        N  0.74051979  0.03814860  0.21365566    -0.35200
C113        C  0.74219838  0.03674453  0.19389102     0.01000
C114        C  0.72354329  0.03857704  0.18574312     0.07000
C115        C  0.71083523  0.04130133  0.20165884    -0.06100
H116        H  0.75609183  0.03504774  0.18601266     0.07700
H117        H  0.69493357  0.04338428  0.20110280     0.08900
Cu118      Cu  0.76380770  0.03779443  0.23335962     0.44200
Cu119      Cu  0.71160630  0.04286448  0.24753759     0.42000
Cu120      Cu  0.75167344  0.04242510  0.28393548     0.43900
N121        N  0.78502348  0.04061212  0.25508621    -0.34700
N122        N  0.78051649  0.04232802  0.27405174    -0.29000
C123        C  0.79722379  0.04512855  0.28453081    -0.05100
C124        C  0.81302649  0.04521950  0.27140956     0.07100
C125        C  0.80472416  0.04235788  0.25286034     0.00900
H126        H  0.79767710  0.04778175  0.30035316     0.08600
H127        H  0.81237204  0.04198921  0.23873984     0.07600
N128        N  0.72199055  0.04291425  0.29094900    -0.36200
N129        N  0.70721137  0.04307249  0.27808071    -0.28400
C130        C  0.68993470  0.04335115  0.28817291    -0.03600
C131        C  0.69419917  0.04340032  0.30831980     0.05000
C132        C  0.71464994  0.04315287  0.30940471     0.03100
H133        H  0.67544491  0.04384592  0.28131967     0.08200
H134        H  0.72364667  0.04300931  0.32268677     0.07000
N135        N  0.78178453  0.32742811  0.00095596    -0.27400
N136        N  0.78640957  0.30841858  0.99916641    -0.35200
C137        C  0.80618214  0.30666293  0.99753858     0.01000
C138        C  0.81454017  0.32538848  0.99855159     0.07000
C139        C  0.79862914  0.33823719  0.00069669    -0.06100
H140        H  0.81393894  0.29269171  0.99600185     0.07700
H141        H  0.79919320  0.35426503  0.00162790     0.08900
Cu142      Cu  0.76627620  0.28513734  0.99925544     0.44200
Cu143      Cu  0.75273892  0.33788924  0.00268767     0.42000
Cu144      Cu  0.71599931  0.29871806  0.99529908     0.43900
N145        N  0.74352276  0.26443274  0.99967495    -0.34700
N146        N  0.72473244  0.26952352  0.99778940    -0.29000
C147        C  0.71331788  0.25316550  0.99887500    -0.05100
C148        C  0.72553846  0.23693106  0.00182452     0.07100
C149        C  0.74463991  0.24465779  0.00208444     0.00900
H150        H  0.69729067  0.25316525  0.99800990     0.08600
H151        H  0.75837782  0.23654445  0.00368570     0.07600
N152        N  0.70937130  0.32850608  0.99735781    -0.36200
N153        N  0.72227393  0.34287740  0.00096138    -0.28400
C154        C  0.71228686  0.36010928  0.00297114    -0.03600
C155        C  0.69225604  0.35627542  0.00015355     0.05000
C156        C  0.69103542  0.33611331  0.99675441     0.03100
H157        H  0.71906505  0.37430642  0.00626177     0.08200
H158        H  0.67768165  0.32739954  0.99477044     0.07000
O159        O  0.97113693  0.05583324  0.72514404    -0.73000
O160        O  0.03002550  0.05663352  0.72304033    -0.74000
O161        O  0.00000397  0.08604764  0.72302877    -0.62600
O162        O  0.00096116  0.02648158  0.72489991    -0.71000
O163        O  0.99999790  0.02536813  0.69205855    -0.70600
O164        O  0.99935566  0.08489567  0.69009189    -0.61800
O165        O  0.02927470  0.05579244  0.69009992    -0.74300
O166        O  0.96969266  0.05476045  0.69231378    -0.73100
Cu167      Cu  0.00056339  0.05627829  0.72515210     1.04600
Cu168      Cu  0.99950201  0.05514235  0.68996838     1.04300
C169        C  0.96100442  0.05530962  0.70919277     0.93200
C170        C  0.03898353  0.05648538  0.70635117     0.92300
C171        C  0.99973410  0.09482738  0.70622521     0.84500
C172        C  0.00058997  0.01646301  0.70879464     0.90700
N173        N  0.00914218  0.27509266  0.71572179    -0.27400
N174        N  0.01493806  0.27018634  0.73380591    -0.35200
C175        C  0.01789286  0.25050303  0.73461289     0.01000
C176        C  0.01363304  0.24252570  0.71622349     0.07000
C177        C  0.00797213  0.25850605  0.70461231    -0.06100
H178        H  0.02169747  0.24244974  0.74796167     0.07700
H179        H  0.00297993  0.25806035  0.68936882     0.08900
Cu180      Cu  0.01576898  0.28941956  0.75767579     0.44200
Cu181      Cu  0.00251853  0.30403550  0.70732648     0.42000
Cu182      Cu  0.99883397  0.33861630  0.74858992     0.43900
N183        N  0.01102102  0.30983887  0.78005125    -0.34700
N184        N  0.00444430  0.32796733  0.77667088    -0.29000
C185        C  0.00191212  0.33739083  0.79404871    -0.05100
C186        C  0.00695175  0.32445077  0.80918521     0.07100
C187        C  0.01280893  0.30715915  0.79971401     0.00900
H188        H  0.99683070  0.35254927  0.79544593     0.08600
H189        H  0.01747717  0.29343492  0.80660517     0.07600
N190        N  0.99612296  0.34666981  0.71922784    -0.36200
N191        N  0.99788773  0.33437168  0.70403613    -0.28400
C192        C  0.99688327  0.34492308  0.68709283    -0.03600
C193        C  0.99406895  0.36471540  0.69196220     0.05000
C194        C  0.99376415  0.36523111  0.71244331     0.03100
H195        H  0.99831791  0.33869226  0.67236414     0.08200
H196        H  0.99275017  0.37824896  0.72179857     0.07000
N197        N  0.27722911  0.04957963  0.77545172    -0.27400
N198        N  0.25827329  0.05067968  0.78048489    -0.35200
C199        C  0.25658203  0.04987860  0.80027070     0.01000
C200        C  0.27530731  0.04833464  0.80824088     0.07000
C201        C  0.28815834  0.04835563  0.79217085    -0.06100
H202        H  0.24268895  0.05068247  0.80829525     0.07700
H203        H  0.30416043  0.04721721  0.79258379     0.08900
Cu204      Cu  0.23489273  0.05434335  0.76127003     0.44200
Cu205      Cu  0.28691148  0.04902405  0.74596554     0.42000
Cu206      Cu  0.24662537  0.05724649  0.71064964     0.43900
N207        N  0.21380597  0.06020360  0.74006809    -0.34700
N208        N  0.21823089  0.06135108  0.72104496    -0.29000
C209        C  0.20152426  0.06421291  0.71062175    -0.05100
C210        C  0.18581085  0.06507069  0.72382264     0.07100
C211        C  0.19415393  0.06241544  0.74238959     0.00900
H212        H  0.20082279  0.06500573  0.69460553     0.08600
H213        H  0.18646015  0.06112703  0.75642870     0.07600
N214        N  0.27545138  0.05107759  0.70270409    -0.36200
N215        N  0.29028453  0.04797734  0.71512927    -0.28400
C216        C  0.30677006  0.04404358  0.70446530    -0.03600
C217        C  0.30195446  0.04468180  0.68440274     0.05000
C218        C  0.28197634  0.04922943  0.68401280     0.03100
H219        H  0.32117852  0.04120908  0.71089206     0.08200
H220        H  0.27266328  0.05080806  0.67105019     0.07000
O221        O  0.27057478  0.05023811  0.96648351    -0.73000
O222        O  0.27013190  0.05170549  0.02577405    -0.74000
O223        O  0.26937089  0.08054402  0.99527985    -0.62600
O224        O  0.27133989  0.02133124  0.99704419    -0.71000
O225        O  0.30423104  0.02224611  0.99701351    -0.70600
O226        O  0.30217144  0.08185346  0.99572615    -0.61800
O227        O  0.30299228  0.05272848  0.02624114    -0.74300
O228        O  0.30336297  0.05145498  0.96663584    -0.73100
Cu229      Cu  0.26924236  0.05090748  0.99614029     1.04600
Cu230      Cu  0.30435507  0.05210897  0.99641004     1.04300
C231        C  0.28703120  0.05081084  0.95705902     0.93200
C232        C  0.28640088  0.05226096  0.03544946     0.92300
C233        C  0.28539482  0.09067315  0.99525386     0.84500
C234        C  0.28802471  0.01237165  0.99729188     0.90700
O235        O  0.99845383  0.02812195  0.27328810    -0.73000
O236        O  0.00085001  0.08778054  0.27383730    -0.74000
O237        O  0.02897486  0.05693528  0.27447603    -0.62600
O238        O  0.97046829  0.05894457  0.27224117    -0.71000
O239        O  0.96854689  0.05795853  0.30504249    -0.70600
O240        O  0.02847319  0.05735740  0.30735958    -0.61800
O241        O  0.99870512  0.08759734  0.30667721    -0.74300
O242        O  0.99834664  0.02782740  0.30622710    -0.73100
Cu243      Cu  0.99973500  0.05798115  0.27238056     1.04600
Cu244      Cu  0.99845925  0.05770787  0.30753976     1.04300
C245        C  0.99820125  0.01857056  0.28967557     0.93200
C246        C  0.00002354  0.09712653  0.29032776     0.92300
C247        C  0.03813990  0.05681952  0.29101254     0.84500
C248        C  0.96011487  0.05833350  0.28803623     0.90700
O249        O  0.97272983  0.32256463  0.99840601    -0.73000
O250        O  0.03206275  0.32253982  0.99651276    -0.74000
O251        O  0.00302972  0.32318417  0.02702790    -0.62600
O252        O  0.00155837  0.32178420  0.96807243    -0.71000
O253        O  0.00087776  0.35459391  0.96664998    -0.70600
O254        O  0.00331865  0.35601743  0.02635494    -0.61800
O255        O  0.03197987  0.35541360  0.99493841    -0.74300
O256        O  0.97237283  0.35544321  0.99778884    -0.73100
Cu257      Cu  0.00236695  0.32142935  0.99754368     1.04600
Cu258      Cu  0.00217623  0.35655691  0.99643932     1.04300
C259        C  0.96310272  0.33888439  0.99855668     0.93200
C260        C  0.04144455  0.33897456  0.99510005     0.92300
C261        C  0.00308636  0.33977586  0.03619141     0.84500
C262        C  0.00083717  0.33773310  0.95790450     0.90700
N263        N  0.00080786  0.27807831  0.27900504    -0.27400
N264        N  0.99543071  0.27308635  0.26079842    -0.35200
C265        C  0.99180527  0.25348476  0.26014068     0.01000
C266        C  0.99524001  0.24567283  0.27873554     0.07000
C267        C  0.00109777  0.26159975  0.29034081    -0.06100
H268        H  0.98801512  0.24534020  0.24682938     0.07700
H269        H  0.00557011  0.26118267  0.30574475     0.08900
Cu270      Cu  0.99581606  0.29212452  0.23674579     0.44200
Cu271      Cu  0.00792553  0.30705408  0.28720967     0.42000
Cu272      Cu  0.01689023  0.33982529  0.24502177     0.43900
N273        N  0.00046908  0.31245126  0.21423452    -0.34700
N274        N  0.00877297  0.32996766  0.21716771    -0.29000
C275        C  0.00977633  0.33973327  0.19979217    -0.05100
C276        C  0.00154847  0.32779292  0.18520170     0.07100
C277        C  0.99599898  0.31051478  0.19492278     0.00900
H278        H  0.01577052  0.35453930  0.19799605     0.08600
H279        H  0.98953328  0.29731305  0.18844900     0.07600
N280        N  0.01731682  0.34888998  0.27429387    -0.36200
N281        N  0.01334495  0.33742075  0.28971134    -0.28400
C282        C  0.01170238  0.34892938  0.30599858    -0.03600
C283        C  0.01482214  0.36859434  0.30051931     0.05000
C284        C  0.01844270  0.36782997  0.28031021     0.03100
H285        H  0.00724397  0.34346717  0.32041805     0.08200
H286        H  0.02070730  0.38025348  0.27038929     0.07000
N287        N  0.27761387  0.04697858  0.21703638    -0.27400
N288        N  0.25859380  0.04814546  0.21242943    -0.35200
C289        C  0.25671422  0.05059567  0.19280614     0.01000
C290        C  0.27540218  0.05097885  0.18436187     0.07000
C291        C  0.28837453  0.04867922  0.20022753    -0.06100
H292        H  0.24262636  0.05172554  0.18521933     0.07700
H293        H  0.30440777  0.04849013  0.19970747     0.08900
Cu294      Cu  0.23531028  0.04658542  0.23217175     0.44200
Cu295      Cu  0.28757577  0.04305187  0.24610273     0.42000
Cu296      Cu  0.24682202  0.04392081  0.28266733     0.43900
N297        N  0.21367067  0.04584918  0.25373121    -0.34700
N298        N  0.21794276  0.04523319  0.27279805    -0.29000
C299        C  0.20098782  0.04493916  0.28331151    -0.05100
C300        C  0.18524880  0.04517968  0.27011633     0.07100
C301        C  0.19389277  0.04592923  0.25146976     0.00900
H302        H  0.20019580  0.04430072  0.29933253     0.08600
H303        H  0.18644824  0.04681769  0.23729395     0.07600
N304        N  0.27630070  0.03946530  0.28941073    -0.36200
N305        N  0.29120767  0.03904452  0.27661883    -0.28400
C306        C  0.30810758  0.03537910  0.28667156    -0.03600
C307        C  0.30342558  0.03310835  0.30660263     0.05000
C308        C  0.28319320  0.03600266  0.30771293     0.03100
H309        H  0.32265025  0.03422306  0.27996033     0.08200
H310        H  0.27406037  0.03589814  0.32092255     0.07000
N311        N  0.22211738  0.33237799  0.99021965    -0.27400
N312        N  0.21758734  0.31395313  0.98508000    -0.35200
C313        C  0.19800863  0.31267302  0.98176542     0.01000
C314        C  0.18967034  0.33110441  0.98498029     0.07000
C315        C  0.20533637  0.34325552  0.99052418    -0.06100
H316        H  0.19029109  0.29907829  0.97802470     0.07700
H317        H  0.20458132  0.35878761  0.99455778     0.08900
Cu318      Cu  0.23720193  0.29037924  0.98428859     0.44200
Cu319      Cu  0.25093776  0.34158182  0.99673909     0.42000
Cu320      Cu  0.28622549  0.30041958  0.99913822     0.43900
N321        N  0.25826395  0.26830768  0.98733416    -0.34700
N322        N  0.27655504  0.27208695  0.99314961    -0.29000
C323        C  0.28666295  0.25497343  0.99456173    -0.05100
C324        C  0.27400323  0.23955511  0.98952821     0.07100
C325        C  0.25614469  0.24862468  0.98489474     0.00900
H326        H  0.30207710  0.25395414  0.99886424     0.08600
H327        H  0.24245177  0.24141578  0.98059192     0.07600
N328        N  0.29369290  0.32982470  0.00266358    -0.36200
N329        N  0.28126960  0.34497459  0.00177494    -0.28400
C330        C  0.29173172  0.36195187  0.00367245    -0.03600
C331        C  0.31162247  0.35710095  0.00577771     0.05000
C332        C  0.31221222  0.33663527  0.00506957     0.03100
H333        H  0.28541567  0.37668126  0.00281841     0.08200
H334        H  0.32523088  0.32729577  0.00590659     0.07000
O335        O  0.00581058  0.74085080  0.02687661    -0.73000
O336        O  0.00324618  0.74328364  0.96715113    -0.74000
O337        O  0.03464212  0.74143577  0.99580993    -0.62600
O338        O  0.97501032  0.74245611  0.99819771    -0.71000
O339        O  0.97572023  0.77533546  0.00011708    -0.70600
O340        O  0.03506167  0.77430832  0.99693010    -0.61800
O341        O  0.00382759  0.77616556  0.96878188    -0.74300
O342        O  0.00716034  0.77379633  0.02778423    -0.73100
Cu343      Cu  0.00469882  0.74081909  0.99693976     1.04600
Cu344      Cu  0.00547791  0.77600953  0.99840516     1.04300
C345        C  0.00693691  0.75708091  0.03666996     0.93200
C346        C  0.00275169  0.76021492  0.95858635     0.92300
C347        C  0.04431108  0.75778810  0.99637665     0.84500
C348        C  0.96596670  0.75904743  0.99955534     0.90700
N349        N  0.00403167  0.83782621  0.27349443    -0.27400
N350        N  0.00709588  0.84280542  0.25471630    -0.35200
C351        C  0.00950364  0.86261512  0.25354030     0.01000
C352        C  0.00761561  0.87055062  0.27236262     0.07000
C353        C  0.00402103  0.85445396  0.28462952    -0.06100
H354        H  0.01138373  0.87076652  0.23983184     0.07700
H355        H  0.00119084  0.85484581  0.30042916     0.08900
Cu356      Cu  0.00536484  0.82332234  0.23076338     0.44200
Cu357      Cu  0.99911535  0.80880931  0.28342298     0.42000
Cu358      Cu  0.99483635  0.77322301  0.24380991     0.43900
N359        N  0.00103604  0.80105596  0.20976231    -0.34700
N360        N  0.99754006  0.78244501  0.21486234    -0.29000
C361        C  0.99596622  0.77123133  0.19846666    -0.05100
C362        C  0.99830803  0.78339100  0.18213421     0.07100
C363        C  0.00153264  0.80224350  0.18982198     0.00900
H364        H  0.99324912  0.75539041  0.19845767     0.08600
H365        H  0.00452432  0.81570116  0.18157322     0.07600
N366        N  0.99204067  0.76591642  0.27329707    -0.36200
N367        N  0.99388979  0.77857506  0.28816038    -0.28400
C368        C  0.99161219  0.76854864  0.30535728    -0.03600
C369        C  0.98804987  0.74868541  0.30091952     0.05000
C370        C  0.98840004  0.74771081  0.28045866     0.03100
H371        H  0.99227306  0.77525891  0.31992384     0.08200
H372        H  0.98651221  0.73460106  0.27136343     0.07000
N373        N  0.22572688  0.77027059  0.99242157    -0.27400
N374        N  0.22031343  0.78899665  0.99020072    -0.35200
C375        C  0.20048957  0.78994516  0.98882594     0.01000
C376        C  0.19281007  0.77094499  0.99039731     0.07000
C377        C  0.20930938  0.75878679  0.99257940    -0.06100
H378        H  0.19221357  0.80364005  0.98758501     0.07700
H379        H  0.20944254  0.74281869  0.99425754     0.08900
Cu380      Cu  0.23929962  0.81307519  0.99142581     0.44200
Cu381      Cu  0.25525437  0.76170003  0.99606755     0.42000
Cu382      Cu  0.28845733  0.80316665  0.00743260     0.43900
N383        N  0.25938147  0.83525689  0.99818084    -0.34700
N384        N  0.27733442  0.83161729  0.00507114    -0.29000
C385        C  0.28681441  0.84893464  0.00815022    -0.05100
C386        C  0.27419031  0.86419815  0.00279063     0.07100
C387        C  0.25694869  0.85496967  0.99650341     0.00900
H388        H  0.30205976  0.85025072  0.01298232     0.08600
H389        H  0.24369514  0.86205007  0.99089493     0.07600
N390        N  0.29761322  0.77407465  0.00420597    -0.36200
N391        N  0.28587270  0.75894129  0.99985101    -0.28400
C392        C  0.29706904  0.74248870  0.99789230    -0.03600
C393        C  0.31681217  0.74758532  0.00105096     0.05000
C394        C  0.31644860  0.76772687  0.00509309     0.03100
H395        H  0.29118412  0.72793221  0.99450638     0.08200
H396        H  0.32904964  0.77727687  0.00795325     0.07000
N397        N  0.00421113  0.83452724  0.71904198    -0.27400
N398        N  0.00399530  0.83955279  0.73801071    -0.35200
C399        C  0.00532396  0.85934293  0.73963106     0.01000
C400        C  0.00624940  0.86743169  0.72082991     0.07000
C401        C  0.00552325  0.85123735  0.70805309    -0.06100
H402        H  0.00503377  0.86731815  0.75356816     0.07700
H403        H  0.00598120  0.85153282  0.69201414     0.08900
Cu404      Cu  0.00045656  0.82020940  0.76146000     0.44200
Cu405      Cu  0.00240384  0.80502029  0.70949935     0.42000
Cu406      Cu  0.99214257  0.76984021  0.75007609     0.43900
N407        N  0.99450365  0.79934743  0.78304985    -0.34700
N408        N  0.99133068  0.78047563  0.77887561    -0.29000
C409        C  0.98854081  0.77042444  0.79589600    -0.05100
C410        C  0.98985809  0.78371130  0.81158086     0.07100
C411        C  0.99375435  0.80191893  0.80279627     0.00900
H412        H  0.98606803  0.75457199  0.79678244     0.08600
H413        H  0.99668206  0.81588298  0.81016973     0.07600
N414        N  0.99518739  0.76198513  0.72052805    -0.36200
N415        N  0.99954203  0.77429534  0.70582682    -0.28400
C416        C  0.00151539  0.76365297  0.68896991    -0.03600
C417        C  0.99788129  0.74386489  0.69333789     0.05000
C418        C  0.99397437  0.74339967  0.71342464     0.03100
H419        H  0.00520662  0.76984799  0.67462075     0.08200
H420        H  0.99097926  0.73039052  0.72236781     0.07000
N421        N  0.72034512  0.04583128  0.77794899    -0.27400
N422        N  0.73888009  0.05004005  0.78281774    -0.35200
C423        C  0.74009050  0.05246594  0.80251903     0.01000
C424        C  0.72149362  0.04949640  0.81062673     0.07000
C425        C  0.70926774  0.04531347  0.79460997    -0.06100
H426        H  0.75365421  0.05585290  0.81040570     0.07700
H427        H  0.69347731  0.04243339  0.79496764     0.08900
Cu428      Cu  0.76234164  0.05178149  0.76321460     0.44200
Cu429      Cu  0.71123999  0.04156132  0.74875423     0.42000
Cu430      Cu  0.75196023  0.04422619  0.71255322     0.43900
N431        N  0.78421260  0.05142136  0.74180293    -0.34700
N432        N  0.78034772  0.04878071  0.72280341    -0.29000
C433        C  0.79745694  0.04877489  0.71254188    -0.05100
C434        C  0.81284961  0.05147835  0.72583749     0.07100
C435        C  0.80390709  0.05301299  0.74426509     0.00900
H436        H  0.79860380  0.04628314  0.69672500     0.08600
H437        H  0.81117829  0.05494699  0.75843902     0.07600
N438        N  0.72253502  0.04024869  0.70539503    -0.36200
N439        N  0.70763460  0.03940345  0.71815799    -0.28400
C440        C  0.69056562  0.03745291  0.70795586    -0.03600
C441        C  0.69505994  0.03705339  0.68786404     0.05000
C442        C  0.71544868  0.03878043  0.68689515     0.03100
H443        H  0.67603715  0.03636922  0.71470540     0.08200
H444        H  0.72451400  0.03944568  0.67364842     0.07000
N445        N  0.78473581  0.77258121  0.00024454    -0.27400
N446        N  0.78882840  0.79074682  0.99401292    -0.35200
C447        C  0.80858212  0.79288627  0.99256257     0.01000
C448        C  0.81752798  0.77528980  0.99824807     0.07000
C449        C  0.80187055  0.76268247  0.00290469    -0.06100
H450        H  0.81590329  0.80653573  0.98826391     0.07700
H451        H  0.80274869  0.74742729  0.00781512     0.08900
Cu452      Cu  0.76795762  0.81279809  0.98943028     0.44200
Cu453      Cu  0.75606855  0.76243120  0.00566657     0.42000
Cu454      Cu  0.71907951  0.80180562  0.00649876     0.43900
N455        N  0.74588819  0.83405591  0.99131943    -0.34700
N456        N  0.72806060  0.83020059  0.99852688    -0.29000
C457        C  0.71770798  0.84723408  0.99964592    -0.05100
C458        C  0.72961495  0.86255032  0.99273188     0.07100
C459        C  0.74732711  0.85359707  0.98745344     0.00900
H460        H  0.70265762  0.84836114  0.00512186     0.08600
H461        H  0.76055998  0.86087597  0.98195370     0.07600
N462        N  0.71275718  0.77202003  0.01134698    -0.36200
N463        N  0.72597942  0.75754461  0.01057568    -0.28400
C464        C  0.71657745  0.74003379  0.01302914    -0.03600
C465        C  0.69654921  0.74374411  0.01575597     0.05000
C466        C  0.69469968  0.76415468  0.01449315     0.03100
H467        H  0.72375382  0.72567927  0.01268961     0.08200
H468        H  0.68109877  0.77264750  0.01503755     0.07000
N469        N  0.00080668  0.52331724  0.60614923    -0.27400
N470        N  0.99412905  0.51415959  0.59012464    -0.35200
C471        C  0.99263688  0.49462603  0.59386260     0.01000
C472        C  0.99882875  0.49119107  0.61310690     0.07000
C473        C  0.00387274  0.50974566  0.62048541    -0.06100
H474        H  0.98739579  0.48371208  0.58330536     0.07700
H475        H  0.00876859  0.51324749  0.63536022     0.08900
Cu476      Cu  0.98735522  0.52816044  0.56366443     0.44200
Cu477      Cu  0.00426811  0.55397778  0.60816625     0.42000
Cu478      Cu  0.99058118  0.58132391  0.56392982     0.43900
N479        N  0.98358676  0.54530065  0.53847429    -0.34700
N480        N  0.98458068  0.56489886  0.53863842    -0.29000
C481        C  0.98261267  0.57167388  0.51998399    -0.05100
C482        C  0.98042279  0.55553914  0.50747326     0.07100
C483        C  0.98108630  0.53904303  0.51968436     0.00900
H484        H  0.98349827  0.58715442  0.51578363     0.08600
H485        H  0.98034678  0.52362644  0.51522071     0.07600
N486        N  0.99879925  0.59470485  0.59036740    -0.36200
N487        N  0.00408141  0.58484685  0.60645754    -0.28400
C488        C  0.00799092  0.59795514  0.62102392    -0.03600
C489        C  0.00510014  0.61704252  0.61376482     0.05000
C490        C  0.99916983  0.61427705  0.59425737     0.03100
H491        H  0.01228476  0.59383389  0.63592028     0.08200
H492        H  0.99461032  0.62553920  0.58379568     0.07000
N493        N  0.99218783  0.52849148  0.38437414    -0.27400
N494        N  0.98958588  0.51801500  0.40074875    -0.35200
C495        C  0.99145711  0.49861589  0.39643913     0.01000
C496        C  0.99559067  0.49671889  0.37638405     0.07000
C497        C  0.99581188  0.51602290  0.36919988    -0.06100
H498        H  0.99014181  0.48676605  0.40719980     0.07700
H499        H  0.99804673  0.52072196  0.35401770     0.08900
Cu500      Cu  0.98400397  0.53057489  0.42827583     0.44200
Cu501      Cu  0.99019917  0.55923380  0.38341500     0.42000
Cu502      Cu  0.97746991  0.58406234  0.42940458     0.43900
N503        N  0.98037308  0.54681319  0.45416015    -0.34700
N504        N  0.97819446  0.56632413  0.45458905    -0.29000
C505        C  0.97751090  0.57236838  0.47360007    -0.05100
C506        C  0.97926130  0.55586765  0.48568287     0.07100
C507        C  0.98100868  0.53991622  0.47287908     0.00900
H508        H  0.97623084  0.58769080  0.47824957     0.08600
H509        H  0.98322350  0.52451068  0.47683548     0.07600
N510        N  0.97980072  0.59853337  0.40229521    -0.36200
N511        N  0.98516929  0.58955017  0.38569411    -0.28400
C512        C  0.98614373  0.60304515  0.37102432    -0.03600
C513        C  0.98086872  0.62138511  0.37865268     0.05000
C514        C  0.97700341  0.61796230  0.39856215     0.03100
H515        H  0.99018754  0.59969834  0.35584824     0.08200
H516        H  0.97293186  0.62884626  0.40964396     0.07000
C517        C  0.99890980  0.72645421  0.68004117    -0.19900
C518        C  0.98312294  0.71272020  0.67920868     0.36300
C519        C  0.98533992  0.69516312  0.66818424    -0.25900
C520        C  0.00310692  0.69092723  0.65816218     0.02700
C521        C  0.01878666  0.70488347  0.65868837     0.27500
C522        C  0.01640263  0.72267351  0.66941910    -0.25000
N523        N  0.96488934  0.71671295  0.68955061    -0.82400
H524        H  0.97316471  0.68465762  0.66743976     0.13300
C525        C  0.00489593  0.67183469  0.64716087     0.02700
N526        N  0.03722079  0.70068163  0.64880420    -0.81000
H527        H  0.02853964  0.73321779  0.67023723     0.18200
C528        C  0.00939682  0.67208229  0.62684208    -0.25800
C529        C  0.01027519  0.65440790  0.61573673     0.36200
C530        C  0.00602653  0.63604324  0.62506575    -0.19900
C531        C  0.00201104  0.63582856  0.64553581    -0.25100
C532        C  0.00152012  0.65346857  0.65668108     0.27600
H533        H  0.01205092  0.68618748  0.61956534     0.13300
N534        N  0.01566275  0.65511450  0.59510965    -0.82400
H535        H  0.99880904  0.62188272  0.65286796     0.18200
N536        N  0.99750382  0.65282784  0.67763202    -0.81000
H537        H  0.01815350  0.66974436  0.59055879     0.33800
H538        H  0.02916732  0.64764261  0.59353502     0.38300
H539        H  0.99521005  0.63820744  0.68233675     0.33800
H540        H  0.01017309  0.65795725  0.68497256     0.30500
H541        H  0.04721379  0.71243718  0.65064593     0.33800
H542        H  0.04352758  0.68833343  0.65574219     0.30500
H543        H  0.95855162  0.72932024  0.68311777     0.38300
H544        H  0.95478043  0.70509365  0.68750997     0.33800
C545        C  0.98041035  0.64056309  0.36787132    -0.19900
C546        C  0.96536656  0.65477175  0.37127568     0.36300
C547        C  0.96589533  0.67294812  0.36097733    -0.25900
C548        C  0.98101126  0.67702935  0.34728444     0.02700
C549        C  0.99573442  0.66270811  0.34349435     0.27500
C550        C  0.99530408  0.64461197  0.35384599    -0.25000
N551        N  0.94940567  0.65053344  0.38479892    -0.82400
H552        H  0.95444811  0.68394189  0.36351900     0.13300
C553        C  0.98117606  0.69620564  0.33660043     0.02700
N554        N  0.01109848  0.66669272  0.32920912    -0.81000
H555        H  0.00679896  0.63371288  0.35113651     0.18200
C556        C  0.99389103  0.71140067  0.34300519    -0.25800
C557        C  0.99593255  0.72909648  0.33205839     0.36200
C558        C  0.98490797  0.73155332  0.31441182    -0.19900
C559        C  0.97163885  0.71653661  0.30850958    -0.25100
C560        C  0.96969765  0.69887047  0.31939826     0.27600
H561        H  0.00268839  0.70914955  0.35625995     0.13300
N562        N  0.00972332  0.74411111  0.33837927    -0.82400
H563        H  0.96299991  0.71843996  0.29510174     0.18200
N564        N  0.95638770  0.68347836  0.31290942    -0.81000
H565        H  0.01645335  0.74004282  0.35172578     0.33800
H566        H  0.02103923  0.74487614  0.32776156     0.38300
H567        H  0.94886636  0.68786404  0.30006730     0.33800
H568        H  0.96493778  0.67115524  0.30900103     0.30500
H569        H  0.02091640  0.65472150  0.32830436     0.33800
H570        H  0.00438201  0.66792064  0.31528917     0.30500
H571        H  0.94136128  0.63859855  0.37897382     0.38300
H572        H  0.93959995  0.66253016  0.38558747     0.33800
C573        C  0.06634031  0.75765819  0.99643187    -0.19900
C574        C  0.07738019  0.77275988  0.00605209     0.36300
C575        C  0.09817592  0.77246788  0.00505699    -0.25900
C576        C  0.10821149  0.75755390  0.99465469     0.02700
C577        C  0.09740138  0.74205600  0.98571820     0.27500
C578        C  0.07653220  0.74215383  0.98684178    -0.25000
N579        N  0.06756207  0.78812794  0.01714463    -0.82400
H580        H  0.10666267  0.78423030  0.01204336     0.13300
C581        C  0.12995254  0.75941911  0.99214048     0.02700
N582        N  0.10764300  0.72654723  0.97525197    -0.81000
H583        H  0.06818097  0.73041308  0.97967850     0.18200
C584        C  0.14279226  0.74724602  0.00303027    -0.25800
C585        C  0.16348563  0.75030969  0.00247487     0.36200
C586        C  0.17137442  0.76569338  0.99049348    -0.19900
C587        C  0.15837855  0.77733723  0.97911055    -0.25100
C588        C  0.13779674  0.77434998  0.97980717     0.27600
H589        H  0.13657937  0.73585154  0.01255127     0.13300
N590        N  0.17631157  0.73842909  0.01464154    -0.82400
H591        H  0.16429502  0.78897259  0.96970320     0.18200
N592        N  0.12471949  0.78663395  0.96829293    -0.81000
H593        H  0.18257699  0.74776853  0.02532595     0.33800
H594        H  0.16814055  0.72769812  0.02236915     0.38300
H595        H  0.13279660  0.79707826  0.96011921     0.33800
H596        H  0.11756922  0.77747236  0.95799646     0.30500
H597        H  0.09753896  0.71620903  0.96959235     0.33800
H598        H  0.11473690  0.73300036  0.96303551     0.30500
H599        H  0.06134692  0.79798234  0.00693115     0.38300
H600        H  0.07785567  0.79643480  0.02526980     0.33800
C601        C  0.99858693  0.77712455  0.16110869    -0.19900
C602        C  0.98928482  0.78848612  0.14621307     0.36300
C603        C  0.99080936  0.78243976  0.12632763    -0.25900
C604        C  0.00132113  0.76527164  0.12112838     0.02700
C605        C  0.01027942  0.75365947  0.13597313     0.27500
C606        C  0.00862617  0.75960363  0.15589711    -0.25000
N607        N  0.97822524  0.80598796  0.15133357    -0.82400
H608        H  0.98402055  0.79128198  0.11475037     0.13300
C609        C  0.00410831  0.76077521  0.09988501     0.02700
N610        N  0.02173164  0.73645153  0.13068934    -0.81000
H611        H  0.01578322  0.75090028  0.16734713     0.18200
C612        C  0.01910067  0.77086690  0.08957824    -0.25800
C613        C  0.02084004  0.76916182  0.06890996     0.36200
C614        C  0.00747052  0.75686817  0.05848704    -0.19900
C615        C  0.99303784  0.74604145  0.06891116    -0.25100
C616        C  0.99096994  0.74817038  0.08956904     0.27600
H617        H  0.02903133  0.78062664  0.09764897     0.13300
N618        N  0.03584140  0.78014350  0.05837963    -0.82400
H619        H  0.98263072  0.73685959  0.06077010     0.18200
N620        N  0.97490488  0.73860748  0.09989253    -0.81000
H621        H  0.04433161  0.78865682  0.06822263     0.33800
H622        H  0.04547961  0.76987722  0.05190694     0.38300
H623        H  0.96615718  0.73045212  0.08998255     0.33800
H624        H  0.98096774  0.72836808  0.10977755     0.30500
H625        H  0.02781268  0.72989919  0.14335228     0.33800
H626        H  0.01209495  0.72595564  0.12456441     0.30500
H627        H  0.97240164  0.81266572  0.13861108     0.38300
H628        H  0.96610297  0.80149577  0.15994190     0.33800
C629        C  0.83922482  0.77143629  0.99916939    -0.19900
C630        C  0.84774042  0.75849706  0.01335185     0.36300
C631        C  0.86844779  0.75582252  0.01363300    -0.25900
C632        C  0.88073550  0.76603502  0.00032669     0.02700
C633        C  0.87238374  0.77901798  0.98631070     0.27500
C634        C  0.85172651  0.78151313  0.98580376    -0.25000
N635        N  0.83552135  0.74856113  0.02775751    -0.82400
H636        H  0.87510178  0.74597967  0.02445317     0.13300
C637        C  0.90244361  0.76329601  0.00128797     0.02700
N638        N  0.88495338  0.78952872  0.97260163    -0.81000
H639        H  0.84537037  0.79136136  0.97482845     0.18200
C640        C  0.91147579  0.74950808  0.98863192    -0.25800
C641        C  0.93221083  0.74729210  0.98827416     0.36200
C642        C  0.94406459  0.75955272  0.00051321    -0.19900
C643        C  0.93490015  0.77317088  0.01336232    -0.25100
C644        C  0.91415239  0.77501214  0.01402299     0.27600
H645        H  0.90228667  0.74058859  0.97889419     0.13300
N646        N  0.94123649  0.73331726  0.97490493    -0.82400
H647        H  0.94398429  0.78240901  0.02290128     0.18200
N648        N  0.90489830  0.78871928  0.02751070    -0.81000
H649        H  0.93048882  0.72661062  0.96594773     0.33800
H650        H  0.94731238  0.72192281  0.98348105     0.38300
H651        H  0.91559968  0.79598494  0.03609206     0.33800
H652        H  0.89786200  0.79964955  0.01907793     0.30500
H653        H  0.87646427  0.79833221  0.96306999     0.33800
H654        H  0.89382803  0.79926051  0.98080619     0.30500
H655        H  0.82931254  0.75946178  0.03692228     0.38300
H656        H  0.84410290  0.73947979  0.03690268     0.33800
C657        C  0.98960398  0.77907882  0.83310263    -0.19900
C658        C  0.98270628  0.79293796  0.84727223     0.36300
C659        C  0.98465943  0.78867110  0.86757395    -0.25900
C660        C  0.99309949  0.77078917  0.87401049     0.02700
C661        C  0.99916970  0.75656268  0.85993608     0.27500
C662        C  0.99724873  0.76080525  0.83961342    -0.25000
N663        N  0.97361955  0.81119687  0.84105055    -0.82400
H664        H  0.97968625  0.79938554  0.87849627     0.13300
C665        C  0.99613255  0.76756497  0.89555035     0.02700
N666        N  0.00776811  0.73812891  0.86634316    -0.81000
H667        H  0.00251664  0.75010052  0.82884101     0.18200
C668        C  0.98631743  0.75189935  0.90516705    -0.25800
C669        C  0.98857895  0.74877629  0.92569205     0.36200
C670        C  0.00088055  0.76171228  0.93675351    -0.19900
C671        C  0.01069206  0.77733953  0.92702090    -0.25100
C672        C  0.00858265  0.78029809  0.90652799     0.27600
H673        H  0.97664700  0.74226880  0.89664739     0.13300
N674        N  0.97765805  0.73319942  0.93540950    -0.82400
H675        H  0.02012226  0.78727379  0.93546520     0.18200
N676        N  0.01901562  0.79619076  0.89677612    -0.81000
H677        H  0.96813744  0.72614089  0.92541084     0.33800
H678        H  0.98787219  0.72243793  0.93990580     0.38300
H679        H  0.02745377  0.80429455  0.90697527     0.33800
H680        H  0.02903506  0.78980328  0.88679691     0.30500
H681        H  0.01138984  0.72925065  0.85413835     0.33800
H682        H  0.02110412  0.74144947  0.87353413     0.30500
H683        H  0.96053300  0.80755494  0.83356434     0.38300
H684        H  0.96948623  0.81975024  0.85332700     0.33800
C685        C  0.01193220  0.38693717  0.31248856    -0.19900
C686        C  0.01575134  0.38769461  0.33310584     0.36300
C687        C  0.01275215  0.40561447  0.34346756    -0.25900
C688        C  0.00612613  0.42275183  0.33365899     0.02700
C689        C  0.00211482  0.42195333  0.31318342     0.27500
C690        C  0.00513154  0.40414548  0.30283769    -0.25000
N691        N  0.02300103  0.37049197  0.34339581    -0.82400
H692        H  0.01589278  0.40634560  0.35921532     0.13300
C693        C  0.00352379  0.44154251  0.34488735     0.02700
N694        N  0.99474875  0.43920767  0.30302777    -0.81000
H695        H  0.00172372  0.40368208  0.28715797     0.18200
C696        C  0.01436421  0.45841650  0.33920116    -0.25800
C697        C  0.01208576  0.47660650  0.34918300     0.36200
C698        C  0.99862771  0.47793032  0.36524326    -0.19900
C699        C  0.98791481  0.46094189  0.37098577    -0.25100
C700        C  0.99007835  0.44282583  0.36085526     0.27600
H701        H  0.02477663  0.45730715  0.32698447     0.13300
N702        N  0.02369732  0.49353970  0.34329811    -0.82400
H703        H  0.97745153  0.46190546  0.38315954     0.18200
N704        N  0.97843300  0.42581927  0.36647361    -0.81000
H705        H  0.03267586  0.49009282  0.33111992     0.33800
H706        H  0.03325167  0.49698921  0.35502062     0.38300
H707        H  0.96924928  0.42921562  0.37850628     0.33800
H708        H  0.96907359  0.42239287  0.35457988     0.30500
H709        H  0.99263521  0.43620551  0.28795455     0.33800
H710        H  0.98077458  0.44248171  0.30892121     0.30500
H711        H  0.03709638  0.36727731  0.33775661     0.38300
H712        H  0.02482647  0.37352128  0.35849713     0.33800
C713        C  0.16826236  0.33578041  0.98436023    -0.19900
C714        C  0.15622029  0.32864309  0.96876848     0.36300
C715        C  0.13552872  0.33076413  0.97000386    -0.25900
C716        C  0.12676126  0.33992820  0.98645316     0.02700
C717        C  0.13876785  0.34791063  0.00158518     0.27500
C718        C  0.15950068  0.34588662  0.00032908    -0.25000
N719        N  0.16507356  0.31911584  0.95185094    -0.82400
H720        H  0.12614947  0.32482988  0.95836803     0.13300
C721        C  0.10493287  0.33983457  0.98834278     0.02700
N722        N  0.12976673  0.35733574  0.01847953    -0.81000
H723        H  0.16876299  0.35135453  0.01227653     0.18200
C724        C  0.09585178  0.32436471  0.99887124    -0.25800
C725        C  0.07516135  0.32373401  0.00137027     0.36200
C726        C  0.06336017  0.33901924  0.99317561    -0.19900
C727        C  0.07258146  0.35442674  0.98247951    -0.25100
C728        C  0.09327259  0.35488879  0.97985006     0.27600
H729        H  0.10500928  0.31279683  0.00524412     0.13300
N730        N  0.06618814  0.30778880  0.01239590    -0.82400
H731        H  0.06358435  0.36598450  0.97587827     0.18200
N732        N  0.10247694  0.37037044  0.96837645    -0.81000
H733        H  0.07693186  0.29765969  0.01710512     0.33800
H734        H  0.05993430  0.31390251  0.02522126     0.38300
H735        H  0.09177651  0.38012063  0.96284851     0.33800
H736        H  0.11148385  0.37864980  0.97792251     0.30500
H737        H  0.14063159  0.36212529  0.02845833     0.33800
H738        H  0.12250173  0.37007439  0.01344653     0.30500
H739        H  0.17383366  0.32968945  0.94458354     0.38300
H740        H  0.15417146  0.31465946  0.94175723     0.33800
C741        C  0.00004896  0.33207369  0.16368785    -0.19900
C742        C  0.98428747  0.32449193  0.15211722     0.36300
C743        C  0.98472232  0.32692793  0.13143755    -0.25900
C744        C  0.00029632  0.33717005  0.12215705     0.02700
C745        C  0.01531892  0.34592567  0.13378245     0.27500
C746        C  0.01502653  0.34331097  0.15446434    -0.25000
N747        N  0.96781097  0.31455760  0.16138368    -0.82400
H748        H  0.97292481  0.32071464  0.12244386     0.13300
C749        C  0.00105280  0.33790128  0.10020015     0.02700
N750        N  0.03107316  0.35695762  0.12448650    -0.81000
H751        H  0.02699030  0.34939988  0.16330185     0.18200
C752        C  0.00050138  0.35627021  0.09046800    -0.25800
C753        C  0.00108978  0.35746528  0.06963749     0.36200
C754        C  0.00254877  0.33979209  0.05829006    -0.19900
C755        C  0.00311939  0.32141569  0.06825313    -0.25100
C756        C  0.00241641  0.32029563  0.08901405     0.27600
H757        H  0.99929763  0.36972724  0.09920573     0.13300
N758        N  0.00005255  0.37654196  0.06013436    -0.82400
H759        H  0.00418912  0.30774728  0.05984975     0.18200
N760        N  0.00324023  0.30134467  0.09882558    -0.81000
H761        H  0.00005241  0.38794828  0.07066806     0.33800
H762        H  0.98636833  0.37733792  0.05289661     0.38300
H763        H  0.00406067  0.28980835  0.08846880     0.33800
H764        H  0.01638698  0.30090085  0.10702631     0.30500
H765        H  0.04084798  0.36257612  0.13513890     0.33800
H766        H  0.03920826  0.34707212  0.11571893     0.30500
H767        H  0.96055040  0.32494542  0.17033991     0.38300
H768        H  0.95751875  0.30988880  0.15075619     0.33800
C769        C  0.06007396  0.05598669  0.29059515    -0.19900
C770        C  0.07141396  0.04762216  0.30611159     0.36300
C771        C  0.09209636  0.04579456  0.30375224    -0.25900
C772        C  0.10149833  0.05208248  0.28624117     0.02700
C773        C  0.09026982  0.06105100  0.27111209     0.27500
C774        C  0.06973297  0.06282460  0.27341253    -0.25000
N775        N  0.06194631  0.04051123  0.32387258    -0.82400
H776        H  0.10085930  0.03893947  0.31533820     0.13300
C777        C  0.12304607  0.04890280  0.28347008     0.02700
N778        N  0.09981558  0.06825376  0.25341009    -0.81000
H779        H  0.06118707  0.06955038  0.26158819     0.18200
C780        C  0.12950346  0.03767704  0.26717512    -0.25800
C781        C  0.14974951  0.03582433  0.26275365     0.36200
C782        C  0.16383863  0.04540904  0.27496688    -0.19900
C783        C  0.15738241  0.05584724  0.29182785    -0.25100
C784        C  0.13707930  0.05784984  0.29610920     0.27600
H785        H  0.11861694  0.03056256  0.25770714     0.13300
N786        N  0.15600065  0.02416029  0.24601079    -0.82400
H787        H  0.16816534  0.06315532  0.30124964     0.18200
N788        N  0.13063636  0.06940976  0.31284808    -0.81000
H789        H  0.14375218  0.01829493  0.23850071     0.33800
H790        H  0.16403895  0.01207468  0.25145654     0.38300
H791        H  0.14283268  0.07496110  0.32066775     0.33800
H792        H  0.12293448  0.08171042  0.30738885     0.30500
H793        H  0.08941921  0.07429845  0.24363306     0.33800
H794        H  0.10928225  0.07984908  0.25754595     0.30500
H795        H  0.05305286  0.02838452  0.31994086     0.38300
H796        H  0.07248190  0.03516091  0.33388617     0.33800
C797        C  0.99536883  0.22440228  0.28385518    -0.19900
C798        C  0.97836326  0.21254013  0.28099015     0.36300
C799        C  0.97961763  0.19190922  0.28386264    -0.25900
C800        C  0.99762254  0.18298451  0.28921721     0.02700
C801        C  0.01453939  0.19491559  0.29242844     0.27500
C802        C  0.01318006  0.21559396  0.28992429    -0.25000
N803        N  0.96000072  0.22150106  0.27493424    -0.82400
H804        H  0.96668279  0.18266182  0.28136626     0.13300
C805        C  0.99878602  0.16103163  0.29031639     0.02700
N806        N  0.03308311  0.18590421  0.29781028    -0.81000
H807        H  0.02623740  0.22479126  0.29192564     0.18200
C808        C  0.01058444  0.15086342  0.27652108    -0.25800
C809        C  0.01153462  0.13001818  0.27647757     0.36200
C810        C  0.00031121  0.11912663  0.29047691    -0.19900
C811        C  0.98885080  0.12937300  0.30457846    -0.25100
C812        C  0.98791098  0.15024287  0.30457788     0.27600
H813        H  0.01894744  0.15926730  0.26563016     0.13300
N814        N  0.02399305  0.11990212  0.26241030    -0.82400
H815        H  0.98027415  0.12105268  0.31536270     0.18200
N816        N  0.97590446  0.16054567  0.31889302    -0.81000
H817        H  0.03114476  0.13008235  0.25310789     0.33800
H818        H  0.03512525  0.11265115  0.27039529     0.38300
H819        H  0.96874214  0.15045064  0.32827703     0.33800
H820        H  0.98541482  0.16896626  0.32781055     0.30500
H821        H  0.04413961  0.19670200  0.29936424     0.33800
H822        H  0.03122115  0.17935008  0.31174989     0.30500
H823        H  0.95539473  0.23093543  0.28636278     0.38300
H824        H  0.94894057  0.21070732  0.27334756     0.33800
C825        C  0.00672343  0.89187779  0.27753524    -0.19900
C826        C  0.02235091  0.90491488  0.27256537     0.36300
C827        C  0.02026935  0.92537162  0.27627415    -0.25900
C828        C  0.00283934  0.93300885  0.28474970     0.02700
C829        C  0.98738773  0.91990170  0.29011032     0.27500
C830        C  0.98955124  0.89941591  0.28657369    -0.25000
N831        N  0.04024150  0.89730315  0.26379536    -0.82400
H832        H  0.03213063  0.93548054  0.27222604     0.13300
C833        C  0.00079888  0.95483859  0.28729805     0.02700
N834        N  0.96952370  0.92749823  0.29894090    -0.81000
H835        H  0.97757095  0.88934266  0.29034898     0.18200
C836        C  0.98635852  0.96507472  0.27635047    -0.25800
C837        C  0.98487491  0.98589722  0.27733282     0.36200
C838        C  0.99815880  0.99663216  0.28944162    -0.19900
C839        C  0.01207915  0.98635120  0.30097617    -0.25100
C840        C  0.01358248  0.96553452  0.29996982     0.27600
H841        H  0.97645653  0.95679240  0.26675512     0.13300
N842        N  0.96991280  0.99619319  0.26618080    -0.82400
H843        H  0.02216199  0.99464665  0.31037623     0.18200
N844        N  0.02812244  0.95519362  0.31161192    -0.81000
H845        H  0.96130452  0.98613643  0.25806651     0.33800
H846        H  0.96035170  0.00300212  0.27633862     0.38300
H847        H  0.03643931  0.96521502  0.32006566     0.33800
H848        H  0.02049388  0.94613111  0.32165535     0.30500
H849        H  0.95954149  0.91595005  0.30185341     0.33800
H850        H  0.97331870  0.93366966  0.31265616     0.30500
H851        H  0.04695857  0.88801946  0.27423534     0.38300
H852        H  0.05027551  0.90883803  0.26099816     0.33800
C853        C  0.28460494  0.11271421  0.99442163    -0.19900
C854        C  0.26666068  0.12330243  0.99724650     0.36300
C855        C  0.26668159  0.14405435  0.99555262    -0.25900
C856        C  0.28411644  0.15452767  0.99123517     0.02700
C857        C  0.30204638  0.14417605  0.98864129     0.27500
C858        C  0.30213307  0.12337877  0.99032384    -0.25000
N859        N  0.24848034  0.11310081  0.00191952    -0.82400
H860        H  0.25300410  0.15220887  0.99777159     0.13300
C861        C  0.28310469  0.17639564  0.98955581     0.02700
N862        N  0.31998801  0.15480690  0.98404203    -0.81000
H863        H  0.31593495  0.11547052  0.98807616     0.18200
C864        C  0.29331360  0.18824158  0.00326593    -0.25800
C865        C  0.29084638  0.20896474  0.00349599     0.36200
C866        C  0.27811753  0.21795277  0.98944379    -0.19900
C867        C  0.26842273  0.20602495  0.97537200    -0.25100
C868        C  0.27083065  0.18535386  0.97525162     0.27600
H869        H  0.30258693  0.18119033  0.01432842     0.13300
N870        N  0.30053931  0.22069570  0.01844996    -0.82400
H871        H  0.25887581  0.21285671  0.96441622     0.18200
N872        N  0.26071846  0.17333415  0.96080121    -0.81000
H873        H  0.30947040  0.21178515  0.02745882     0.33800
H874        H  0.28952286  0.22661367  0.02763657     0.38300
H875        H  0.25214438  0.18218499  0.95139298     0.33800
H876        H  0.27151234  0.16658596  0.95193549     0.30500
H877        H  0.33191273  0.14499306  0.98261644     0.33800
H878        H  0.31808584  0.16149023  0.97017630     0.30500
H879        H  0.25005353  0.10700104  0.01609748     0.38300
H880        H  0.23662822  0.12306182  0.00275908     0.33800
C881        C  0.27967037  0.05318601  0.16284425    -0.19900
C882        C  0.29584638  0.04363350  0.15348887     0.36300
C883        C  0.29794447  0.04493780  0.13273879    -0.25900
C884        C  0.28405461  0.05525334  0.12121355     0.02700
C885        C  0.26829646  0.06527697  0.13055731     0.27500
C886        C  0.26630021  0.06418204  0.15123093    -0.25000
N887        N  0.30956544  0.03195421  0.16484744    -0.82400
H888        H  0.30996037  0.03716445  0.12540700     0.13300
C889        C  0.28524005  0.05430233  0.09928596     0.02700
N890        N  0.25423202  0.07629571  0.11892585    -0.81000
H891        H  0.25406661  0.07184737  0.15828733     0.18200
C892        C  0.26965443  0.04529590  0.08887912    -0.25800
C893        C  0.26984804  0.04414694  0.06810217     0.36200
C894        C  0.28596985  0.05240374  0.05744236    -0.19900
C895        C  0.30177993  0.06109390  0.06794837    -0.25100
C896        C  0.30151545  0.06221831  0.08879330     0.27600
H897        H  0.25732747  0.03897778  0.09708788     0.13300
N898        N  0.25387772  0.03435378  0.05786335    -0.82400
H899        H  0.31417017  0.06742768  0.05986262     0.18200
N900        N  0.31750664  0.07161114  0.09933799    -0.81000
H901        H  0.24309726  0.02937128  0.06790864     0.33800
H902        H  0.25971639  0.02171247  0.05105614     0.38300
H903        H  0.32836050  0.07665546  0.08943756     0.33800
H904        H  0.31176019  0.08418149  0.10639143     0.30500
H905        H  0.24338920  0.08265716  0.12802585     0.33800
H906        H  0.26187029  0.08803292  0.11220591     0.30500
H907        H  0.30174209  0.01980148  0.17059023     0.38300
H908        H  0.32066435  0.02614283  0.15571953     0.33800
C909        C  0.27867102  0.88564959  0.00188237    -0.19900
C910        C  0.28870934  0.89552541  0.01740604     0.36300
C911        C  0.29198589  0.91610325  0.01601822    -0.25900
C912        C  0.28537627  0.92682318  0.99949860     0.02700
C913        C  0.27576423  0.91693618  0.98381599     0.27500
C914        C  0.27246635  0.89641681  0.98518749    -0.25000
N915        N  0.29489265  0.88480817  0.03476513    -0.82400
H916        H  0.29917189  0.92394272  0.02808485     0.13300
C917        C  0.28672836  0.94867105  0.99966297     0.02700
N918        N  0.26925688  0.92783228  0.96667684    -0.81000
H919        H  0.26496676  0.88878131  0.97318520     0.18200
C920        C  0.30256683  0.95821142  0.99011670    -0.25800
C921        C  0.30353304  0.97907491  0.98925286     0.36200
C922        C  0.28828927  0.99043040  0.99815847    -0.19900
C923        C  0.27260387  0.98070036  0.00788265    -0.25100
C924        C  0.27169328  0.95993257  0.00874713     0.27600
H925        H  0.31399178  0.94933955  0.98309525     0.13300
N926        N  0.31962121  0.98868577  0.97900702    -0.82400
H927        H  0.26099481  0.98935112  0.01488118     0.18200
N928        N  0.25557830  0.95016774  0.01882389    -0.81000
H929        H  0.32962099  0.97818383  0.97349555     0.33800
H930        H  0.31366208  0.99598037  0.96668931     0.38300
H931        H  0.24590745  0.96060088  0.02502288     0.33800
H932        H  0.24741343  0.94231485  0.00822942     0.30500
H933        H  0.26269244  0.91828080  0.95634624     0.33800
H934        H  0.25818271  0.93767148  0.97125232     0.30500
H935        H  0.28210175  0.87970589  0.04195969     0.38300
H936        H  0.30210290  0.89428065  0.04471925     0.33800
C937        C  0.27987782  0.04719728  0.82956836    -0.19900
C938        C  0.27015890  0.03313527  0.84165866     0.36300
C939        C  0.27238026  0.03414687  0.86230587    -0.25900
C940        C  0.28396712  0.04904380  0.87109126     0.02700
C941        C  0.29423134  0.06274606  0.85896295     0.27500
C942        C  0.29226507  0.06152096  0.83821160    -0.25000
N943        N  0.25794316  0.01798605  0.83286724    -0.82400
H944        H  0.26483226  0.02343057  0.87165599     0.13300
C945        C  0.28480658  0.05021381  0.89303914     0.02700
N946        N  0.30603993  0.07819041  0.86778838    -0.81000
H947        H  0.29956892  0.07236786  0.82882246     0.18200
C948        C  0.30313715  0.04867223  0.90266447    -0.25800
C949        C  0.30447268  0.04927252  0.92347143     0.36200
C950        C  0.28689548  0.05086633  0.93496042    -0.19900
C951        C  0.26855445  0.05250880  0.92513054    -0.25100
C952        C  0.26735768  0.05244722  0.90435391     0.27600
H953        H  0.31648558  0.04695973  0.89385118     0.13300
N954        N  0.32360283  0.04808645  0.93279916    -0.82400
H955        H  0.25500812  0.05403037  0.93365670     0.18200
N956        N  0.24850067  0.05475550  0.89466180    -0.81000
H957        H  0.33472624  0.04570920  0.92224746     0.33800
H958        H  0.32656826  0.06199248  0.93906101     0.38300
H959        H  0.23709031  0.05614780  0.90509731     0.33800
H960        H  0.24893751  0.06809371  0.88673458     0.30500
H961        H  0.31256095  0.08703658  0.85682440     0.33800
H962        H  0.29648446  0.08740248  0.87583756     0.30500
H963        H  0.26716294  0.00895328  0.82425328     0.38300
H964        H  0.25175299  0.00887469  0.84381358     0.33800
C965        C  0.99339750  0.38203823  0.67853557    -0.19900
C966        C  0.98036476  0.39801337  0.68226492     0.36300
C967        C  0.98150915  0.41511311  0.67043183    -0.25900
C968        C  0.99529446  0.41646656  0.65494105     0.02700
C969        C  0.00778880  0.40028008  0.65066176     0.27500
C970        C  0.00668346  0.38312509  0.66250456    -0.25000
N971        N  0.96597357  0.39676652  0.69798403    -0.82400
H972        H  0.97177833  0.42756365  0.67340684     0.13300
C973        C  0.99658385  0.43514918  0.64355302     0.02700
N974        N  0.02166768  0.40148798  0.63449547    -0.81000
H975        H  0.01663104  0.37083611  0.65961239     0.18200
C976        C  0.01246093  0.44814942  0.64702102    -0.25800
C977        C  0.01364456  0.46653489  0.63719779     0.36200
C978        C  0.99856892  0.47191949  0.62368819    -0.19900
C979        C  0.98285708  0.45866570  0.62006766    -0.25100
C980        C  0.98168159  0.44035109  0.62993879     0.27600
H981        H  0.02385556  0.44396364  0.65754399     0.13300
N982        N  0.03018964  0.47956607  0.64068611    -0.82400
H983        H  0.97124897  0.46276652  0.60975757     0.18200
N984        N  0.96534976  0.42706480  0.62637528    -0.81000
H985        H  0.03985580  0.47341610  0.65112936     0.33800
H986        H  0.03815047  0.48070933  0.62741062     0.38300
H987        H  0.95553651  0.43317462  0.61606187     0.33800
H988        H  0.97109667  0.41416495  0.61992582     0.30500
H989        H  0.02987097  0.38836471  0.63340117     0.33800
H990        H  0.01348931  0.40267946  0.62138161     0.30500
H991        H  0.95609362  0.38532936  0.69440561     0.38300
H992        H  0.95760201  0.40980071  0.69878473     0.33800
C993        C  0.00601772  0.32792476  0.83085407    -0.19900
C994        C  0.99108072  0.33982340  0.83956465     0.36300
C995        C  0.99078844  0.34240339  0.86023478    -0.25900
C996        C  0.00481230  0.33305390  0.87234101     0.02700
C997        C  0.01969170  0.32115607  0.86371769     0.27500
C998        C  0.02013003  0.31870487  0.84305773    -0.25000
N999        N  0.97582926  0.34861805  0.82756942    -0.82400
H1000       H  0.97917445  0.35120412  0.86703583     0.13300
C1001       C  0.00301063  0.33478293  0.89413413     0.02700
N1002       N  0.03422071  0.31156836  0.87602300    -0.81000
H1003       H  0.03163999  0.30964188  0.83644518     0.18200
C1004       C  0.99965709  0.31752913  0.90518595    -0.25800
C1005       C  0.99805202  0.31817251  0.92589546     0.36200
C1006       C  0.00039342  0.33656222  0.93589529    -0.19900
C1007       C  0.00308138  0.35397371  0.92464510    -0.25100
C1008       C  0.00433762  0.35326409  0.90383556     0.27600
H1009       H  0.99810035  0.30345990  0.89751926     0.13300
N1010       N  0.99396312  0.30018762  0.93667201    -0.82400
H1011       H  0.00462307  0.36815139  0.93208526     0.18200
N1012       N  0.00723049  0.37114362  0.89253272    -0.81000
H1013       H  0.99330739  0.28798558  0.92708932     0.33800
H1014       H  0.97982141  0.30160187  0.94290371     0.38300
H1015       H  0.00774339  0.38352192  0.90189736     0.33800
H1016       H  0.02109382  0.37019622  0.88563699     0.30500
H1017       H  0.04404058  0.30321041  0.86739025     0.33800
H1018       H  0.04263384  0.32267888  0.88286517     0.30500
H1019       H  0.96745610  0.33705027  0.82144353     0.38300
H1020       H  0.96610606  0.35697140  0.83629802     0.33800
C1021       C  0.06076657  0.05711750  0.70613132    -0.19900
C1022       C  0.07129644  0.06969485  0.69307064     0.36300
C1023       C  0.09207442  0.07065069  0.69437982    -0.25900
C1024       C  0.10223589  0.05948489  0.70862610     0.02700
C1025       C  0.09178994  0.04660313  0.72133362     0.27500
C1026       C  0.07108488  0.04563456  0.72004719    -0.25000
N1027       N  0.06083342  0.08203117  0.67919687    -0.82400
H1028       H  0.10032726  0.08060283  0.68478551     0.13300
C1029       C  0.12371415  0.06229249  0.71115098     0.02700
N1030       N  0.10229789  0.03484941  0.73568238    -0.81000
H1031       H  0.06292759  0.03594792  0.72999341     0.18200
C1032       C  0.13040303  0.07352941  0.72729345    -0.25800
C1033       C  0.15072326  0.07534772  0.73129841     0.36200
C1034       C  0.16449152  0.06549740  0.71896294    -0.19900
C1035       C  0.15773458  0.05491542  0.70231163    -0.25100
C1036       C  0.13738327  0.05308470  0.69836663     0.27600
H1037       H  0.11967108  0.08068116  0.73691119     0.13300
N1038       N  0.15740674  0.08715525  0.74776732    -0.82400
H1039       H  0.16828931  0.04733261  0.69284964     0.18200
N1040       N  0.13050410  0.04155957  0.68178021    -0.81000
H1041       H  0.14534680  0.09330249  0.75535810     0.33800
H1042       H  0.16556648  0.09905318  0.74200627     0.38300
H1043       H  0.14250152  0.03581866  0.67379494     0.33800
H1044       H  0.12268475  0.02936786  0.68741506     0.30500
H1045       H  0.09239101  0.02626880  0.74402923     0.33800
H1046       H  0.11128799  0.02489473  0.72788792     0.30500
H1047       H  0.05245526  0.09217974  0.68741892     0.38300
H1048       H  0.07080600  0.09040390  0.67073067     0.33800
C1049       C  0.01254874  0.22117601  0.71134361    -0.19900
C1050       C  0.02749009  0.20794996  0.71762443     0.36300
C1051       C  0.02482248  0.18745646  0.71489441    -0.25900
C1052       C  0.00755564  0.17999142  0.70602386     0.02700
C1053       C  0.99295271  0.19321088  0.69906613     0.27500
C1054       C  0.99565678  0.21374926  0.70168640    -0.25000
N1055       N  0.04524519  0.21539119  0.72682203    -0.82400
H1056       H  0.03604517  0.17719487  0.72008352     0.13300
C1057       C  0.00474327  0.15822813  0.70485288     0.02700
N1058       N  0.97534126  0.18567153  0.68968781    -0.81000
H1059       H  0.98420430  0.22393508  0.69687814     0.18200
C1060       C  0.98966878  0.14927186  0.71613693    -0.25800
C1061       C  0.98750460  0.12850829  0.71658659     0.36200
C1062       C  0.00057340  0.11664201  0.70537409    -0.19900
C1063       C  0.01520847  0.12563853  0.69359982    -0.25100
C1064       C  0.01758713  0.14634864  0.69340565     0.27600
H1065       H  0.97986591  0.15851083  0.72492351     0.13300
N1066       N  0.97213082  0.11942448  0.72830510    -0.82400
H1067       H  0.02515079  0.11643002  0.68495676     0.18200
N1068       N  0.03312600  0.15538157  0.68187302    -0.81000
H1069       H  0.96380102  0.13025012  0.73566067     0.33800
H1070       H  0.96242939  0.11220006  0.71857314     0.38300
H1071       H  0.04143724  0.14454926  0.67450502     0.33800
H1072       H  0.02641459  0.16405888  0.67091836     0.30500
H1073       H  0.96598953  0.19733059  0.68557429     0.33800
H1074       H  0.97967978  0.17859838  0.67657085     0.30500
H1075       H  0.05279372  0.22392179  0.71626360     0.38300
H1076       H  0.05468838  0.20370674  0.73065618     0.33800
C1077       C  0.00116468  0.99442573  0.70945184    -0.19900
C1078       C  0.99495948  0.98371512  0.72642450     0.36300
C1079       C  0.99682442  0.96295131  0.72669949    -0.25900
C1080       C  0.00454288  0.95258154  0.71038084     0.02700
C1081       C  0.01023197  0.96312568  0.69323485     0.27500
C1082       C  0.00840745  0.98392932  0.69290995    -0.25000
N1083       N  0.98655469  0.99387553  0.74320946    -0.82400
H1084       H  0.99211381  0.95472540  0.73970398     0.13300
C1085       C  0.00660360  0.93067227  0.71171076     0.02700
N1086       N  0.01815443  0.95270014  0.67638750    -0.81000
H1087       H  0.01313868  0.99201466  0.67983336     0.18200
C1088       C  0.99624732  0.91840878  0.69841586    -0.25800
C1089       C  0.99635906  0.89759926  0.70056779     0.36200
C1090       C  0.00719125  0.88896862  0.71628544    -0.19900
C1091       C  0.01811511  0.90129433  0.72907684    -0.25100
C1092       C  0.01802908  0.92200405  0.72689552     0.27600
H1093       H  0.98743147  0.92515424  0.68680557     0.13300
N1094       N  0.98485509  0.88537959  0.68739916    -0.82400
H1095       H  0.02666780  0.89472284  0.74097845     0.18200
N1096       N  0.02934000  0.93433109  0.74015714    -0.81000
H1097       H  0.97793426  0.89405082  0.67659710     0.33800
H1098       H  0.97350958  0.87881946  0.69576836     0.38300
H1099       H  0.03683036  0.92566159  0.75060712     0.33800
H1100       H  0.04020704  0.94155656  0.73174181     0.30500
H1101       H  0.02155946  0.96261698  0.66493640     0.33800
H1102       H  0.03153606  0.94621054  0.68074532     0.30500
H1103       H  0.97319856  0.00017642  0.73864006     0.38300
H1104       H  0.98301754  0.98379920  0.75454338     0.33800
C1105       C  0.83434593  0.05124371  0.72170396    -0.19900
C1106       C  0.84252780  0.06101240  0.70505286     0.36300
C1107       C  0.86316930  0.06072175  0.70214289    -0.25900
C1108       C  0.87566090  0.05091817  0.71555278     0.02700
C1109       C  0.86742427  0.04075407  0.73190171     0.27500
C1110       C  0.84685949  0.04119702  0.73491370    -0.25000
N1111       N  0.82997327  0.07173363  0.69158222    -0.82400
H1112       H  0.86961900  0.06869100  0.68973828     0.13300
C1113       C  0.89742362  0.05248898  0.71316564     0.02700
N1114       N  0.88002835  0.03007843  0.74538091    -0.81000
H1115       H  0.84053294  0.03348268  0.74753925     0.18200
C1116       C  0.90848332  0.06085449  0.72863112    -0.25800
C1117       C  0.92913350  0.06221607  0.72746731     0.36200
C1118       C  0.93909318  0.05513112  0.71043185    -0.19900
C1119       C  0.92793754  0.04734818  0.69461975    -0.25100
C1120       C  0.90715768  0.04584734  0.69586678     0.27600
H1121       H  0.90099843  0.06638088  0.74176244     0.13300
N1122       N  0.93984835  0.07107095  0.74355982    -0.82400
H1123       H  0.93546435  0.04193369  0.68148069     0.18200
N1124       N  0.89595117  0.03732879  0.67984198    -0.81000
H1125       H  0.93457009  0.08561629  0.74553218     0.33800
H1126       H  0.93674139  0.06306334  0.75639541     0.38300
H1127       H  0.90534728  0.03326075  0.66817098     0.33800
H1128       H  0.88941839  0.02424939  0.68507788     0.30500
H1129       H  0.87165220  0.02349895  0.75667960     0.33800
H1130       H  0.88663680  0.01850102  0.73743124     0.30500
H1131       H  0.82368793  0.08354328  0.69942954     0.38300
H1132       H  0.83835769  0.07800613  0.68009949     0.33800
C1133       C  0.83598111  0.33011061  0.99748526    -0.19900
C1134       C  0.84484844  0.34433611  0.01010316     0.36300
C1135       C  0.86552297  0.34722270  0.00936879    -0.25900
C1136       C  0.87740087  0.33597224  0.99652442     0.02700
C1137       C  0.86852969  0.32216012  0.98358325     0.27500
C1138       C  0.84791331  0.31931163  0.98424295    -0.25000
N1139       N  0.83302355  0.35513434  0.02419509    -0.82400
H1140       H  0.87251981  0.35768924  0.01938687     0.13300
C1141       C  0.89925214  0.33752739  0.99780716     0.02700
N1142       N  0.88059402  0.31090445  0.97004692    -0.81000
H1143       H  0.84111826  0.30851540  0.97444057     0.18200
C1144       C  0.90985812  0.32132933  0.00528340    -0.25800
C1145       C  0.93063474  0.32168746  0.00634550     0.36200
C1146       C  0.94109246  0.33852989  0.99931676    -0.19900
C1147       C  0.93033419  0.35502024  0.99237572    -0.25100
C1148       C  0.90947572  0.35465654  0.99152795     0.27600
H1149       H  0.90180542  0.30835004  0.01039464     0.13300
N1150       N  0.94107167  0.30507470  0.01470978    -0.82400
H1151       H  0.93821338  0.36802812  0.98710102     0.18200
N1152       N  0.89864756  0.37141438  0.98402524    -0.81000
H1153       H  0.93116453  0.29384868  0.01889476     0.33800
H1154       H  0.94792477  0.30998322  0.02772537     0.38300
H1155       H  0.90836951  0.38287185  0.98007337     0.33800
H1156       H  0.89152725  0.36692699  0.97099595     0.30500
H1157       H  0.87181239  0.30127449  0.96161053     0.33800
H1158       H  0.88707050  0.32091897  0.96009807     0.30500
H1159       H  0.82730607  0.34486304  0.03437050     0.38300
H1160       H  0.84183317  0.36498407  0.03231173     0.33800
C1161       C  0.83408367  0.04928000  0.27574683    -0.19900
C1162       C  0.84349453  0.04161254  0.29280727     0.36300
C1163       C  0.86381482  0.04521620  0.29566851    -0.25900
C1164       C  0.87478361  0.05618317  0.28178872     0.02700
C1165       C  0.86524769  0.06440719  0.26512694     0.27500
C1166       C  0.84500367  0.06076396  0.26221420    -0.25000
N1167       N  0.83264453  0.02958302  0.30671823    -0.82400
H1168       H  0.87133077  0.03876217  0.30831802     0.13300
C1169       C  0.89656823  0.05723013  0.28374329     0.02700
N1170       N  0.87627409  0.07620303  0.25114052    -0.81000
H1171       H  0.83770385  0.06694956  0.24931188     0.18200
C1172       C  0.90815089  0.04878591  0.26873311    -0.25800
C1173       C  0.92887245  0.04909914  0.26971743     0.36200
C1174       C  0.93826038  0.05784774  0.28636800    -0.19900
C1175       C  0.92658898  0.06599069  0.30161977    -0.25100
C1176       C  0.90576465  0.06590665  0.30038217     0.27600
H1177       H  0.90091450  0.04184958  0.25614988     0.13300
N1178       N  0.94028749  0.03994487  0.25416158    -0.82400
H1179       H  0.93373337  0.07270547  0.31436237     0.18200
N1180       N  0.89392046  0.07465560  0.31581895    -0.81000
H1181       H  0.93106105  0.03199415  0.24453487     0.33800
H1182       H  0.94647763  0.05134130  0.24563069     0.38300
H1183       H  0.90297628  0.08037462  0.32705102     0.33800
H1184       H  0.88636806  0.08671014  0.30966546     0.30500
H1185       H  0.86708222  0.08104750  0.23963216     0.33800
H1186       H  0.88118375  0.08892302  0.25856318     0.30500
H1187       H  0.82836244  0.01658122  0.29937171     0.38300
H1188       H  0.84176898  0.02522986  0.31845824     0.33800
C1189       C  0.71948855  0.21583204  0.00368157    -0.19900
C1190       C  0.72990703  0.20255445  0.01608742     0.36300
C1191       C  0.72497612  0.18230526  0.01584335    -0.25900
C1192       C  0.70973189  0.17509684  0.00369779     0.02700
C1193       C  0.69855903  0.18840361  0.99214075     0.27500
C1194       C  0.70344670  0.20872933  0.99237369    -0.25000
N1195       N  0.74543371  0.20963416  0.02888020    -0.89000
H1196       H  0.73339557  0.17193916  0.02478425     0.13300
C1197       C  0.70749938  0.15335676  0.00155559     0.02700
N1198       N  0.68277822  0.18113235  0.97977277    -0.81000
H1199       H  0.69528959  0.21889619  0.98299199     0.18200
C1200       C  0.69159209  0.14333059  0.01055077    -0.25800
C1201       C  0.69046766  0.12240506  0.01010126     0.36200
C1202       C  0.70548163  0.11152985  0.00024305    -0.19900
C1203       C  0.72101983  0.12180090  0.99084696    -0.25100
C1204       C  0.72213237  0.14254612  0.99133647     0.27600
H1205       H  0.68043395  0.15181133  0.01843011     0.13300
N1206       N  0.67459562  0.11223616  0.02013355    -0.82400
H1207       H  0.73244262  0.11357447  0.98307224     0.18200
N1208       N  0.73824734  0.15276795  0.98172220    -0.81000
H1209       H  0.66481067  0.12242999  0.02654234     0.33800
H1210       H  0.68082582  0.10417562  0.03182559     0.38300
H1211       H  0.74792878  0.14265408  0.97503012     0.33800
H1212       H  0.73222607  0.16134184  0.97029846     0.30500
H1213       H  0.67597024  0.19286760  0.97225581     0.33800
H1214       H  0.68909259  0.17200238  0.96893206     0.30500
H1215       H  0.73896124  0.21917927  0.03926137     0.38300
H1216       H  0.75165975  0.19791771  0.03691210     0.33800
C1217       C  0.70965628  0.04791766  0.05955531    -0.19900
C1218       C  0.69224817  0.04779149  0.07138766     0.36300
C1219       C  0.69390405  0.04584833  0.09209052    -0.25900
C1220       C  0.71249146  0.04474130  0.10130745     0.02700
C1221       C  0.72985599  0.04562685  0.08966962     0.27500
C1222       C  0.72825648  0.04695916  0.06897464    -0.25000
N1223       N  0.67297017  0.04971052  0.06250007    -0.82400
H1224       H  0.68061221  0.04522083  0.10113465     0.13300
C1225       C  0.71368014  0.04250548  0.12315814     0.02700
N1226       N  0.74906041  0.04527133  0.09895263    -0.81000
H1227       H  0.74172020  0.04726695  0.06018798     0.18200
C1228       C  0.72421951  0.02639670  0.13103615    -0.25800
C1229       C  0.72701413  0.02445996  0.15154602     0.36200
C1230       C  0.71883460  0.03878115  0.16442165    -0.19900
C1231       C  0.70738821  0.05430685  0.15668545    -0.25100
C1232       C  0.70496500  0.05650426  0.13609349     0.27600
H1233       H  0.73054075  0.01545832  0.12107820     0.13300
N1234       N  0.73817249  0.00806114  0.15937470    -0.82400
H1235       H  0.70120019  0.06529422  0.16667124     0.18200
N1236       N  0.69429997  0.07321563  0.12825012    -0.81000
H1237       H  0.74328206  0.99893222  0.14790717     0.33800
H1238       H  0.72849023  0.99944840  0.16793592     0.38300
H1239       H  0.68884037  0.08209712  0.13974340     0.33800
H1240       H  0.70440234  0.08194870  0.12030715     0.30500
H1241       H  0.76034160  0.04593467  0.08830529     0.33800
H1242       H  0.75035489  0.05811448  0.10757853     0.30500
H1243       H  0.67202928  0.06404874  0.05660649     0.38300
H1244       H  0.66182130  0.04868008  0.07324904     0.33800
C1245       C  0.70874842  0.05110006  0.93708827    -0.19900
C1246       C  0.72612395  0.04572668  0.92653298     0.36300
C1247       C  0.72612671  0.04639591  0.90575422    -0.25900
C1248       C  0.70912038  0.05180495  0.89520025     0.02700
C1249       C  0.69156523  0.05649637  0.90550707     0.27500
C1250       C  0.69153006  0.05609096  0.92639700    -0.25000
N1251       N  0.74363332  0.03928633  0.93685551    -0.82400
H1252       H  0.73946420  0.04249587  0.89764426     0.13300
C1253       C  0.71034657  0.05263941  0.87330628     0.02700
N1254       N  0.67399218  0.06187185  0.89472741    -0.81000
H1255       H  0.67811319  0.06002096  0.93433616     0.18200
C1256       C  0.70037962  0.03838015  0.86186767    -0.25800
C1257       C  0.70344353  0.03718709  0.84123225     0.36200
C1258       C  0.71642327  0.05083440  0.83195659    -0.19900
C1259       C  0.72586323  0.06545226  0.84343705    -0.25100
C1260       C  0.72296193  0.06648848  0.86400541     0.27600
H1261       H  0.69091296  0.02762010  0.86920590     0.13300
N1262       N  0.69420061  0.02163938  0.82990439    -0.82400
H1263       H  0.73572653  0.07601261  0.83633928     0.18200
N1264       N  0.73306465  0.08129058  0.87561460    -0.81000
H1265       H  0.68514790  0.01288078  0.83899239     0.33800
H1266       H  0.70545549  0.01235125  0.82462949     0.38300
H1267       H  0.74198031  0.09022987  0.86656261     0.33800
H1268       H  0.72228194  0.09056916  0.88179859     0.30500
H1269       H  0.66231302  0.06482772  0.90450414     0.33800
H1270       H  0.67698477  0.07512874  0.88720462     0.30500
H1271       H  0.74022858  0.02583444  0.94380880     0.38300
H1272       H  0.75515246  0.03628984  0.92687536     0.33800
C1273       C  0.71356001  0.98931671  0.99361457    -0.19900
C1274       C  0.73197315  0.98008876  0.98924708     0.36300
C1275       C  0.73300368  0.95928987  0.98800024    -0.25900
C1276       C  0.71607195  0.94741191  0.99036865     0.02700
C1277       C  0.69759463  0.95653957  0.99395656     0.27500
C1278       C  0.69655738  0.97733359  0.99569614    -0.25000
N1279       N  0.74959197  0.99173730  0.98601305    -0.82400
H1280       H  0.74719782  0.95224202  0.98531605     0.13300
C1281       C  0.71823485  0.92542327  0.99005141     0.02700
N1282       N  0.67996070  0.94463757  0.99580728    -0.81000
H1283       H  0.68235121  0.98417753  0.99877277     0.18200
C1284       C  0.71210875  0.91439587  0.00663712    -0.25800
C1285       C  0.71538844  0.89381867  0.00775878     0.36200
C1286       C  0.72501726  0.88404241  0.99191238    -0.19900
C1287       C  0.73096543  0.89502735  0.97522823    -0.25100
C1288       C  0.72746907  0.91557408  0.97401945     0.27600
H1289       H  0.70532010  0.92201428  0.01906944     0.13300
N1290       N  0.70966500  0.88300514  0.02524616    -0.82400
H1291       H  0.73823682  0.88749450  0.96301782     0.18200
N1292       N  0.73324781  0.92648790  0.95660712    -0.81000
H1293       H  0.70266415  0.89238726  0.03544791     0.33800
H1294       H  0.72262983  0.87796217  0.03206354     0.38300
H1295       H  0.73989477  0.91707259  0.94621066     0.33800
H1296       H  0.72032136  0.93194600  0.95002705     0.30500
H1297       H  0.66759123  0.95358990  0.99851783     0.33800
H1298       H  0.67754166  0.93770045  0.98213951     0.30500
H1299       H  0.74757110  0.99970102  0.97287159     0.38300
H1300       H  0.76190750  0.98258225  0.98366615     0.33800
C1301       C  0.36883716  0.02390192  0.57747163    -0.19900
C1302       C  0.34937106  0.01642363  0.58009809     0.36300
C1303       C  0.33917059  0.02033447  0.59789622    -0.25900
C1304       C  0.34813133  0.03117202  0.61321753     0.02700
C1305       C  0.36759565  0.03833402  0.61084028     0.27500
C1306       C  0.37778584  0.03456536  0.59304611    -0.25000
N1307       N  0.34012663  0.00464387  0.56490509    -0.82400
H1308       H  0.32420428  0.01478165  0.59994524     0.13300
C1309       C  0.33681047  0.03516740  0.63160827     0.02700
N1310       N  0.37678056  0.04968178  0.62640308    -0.81000
H1311       H  0.39259691  0.04052226  0.59117371     0.18200
C1312       C  0.34186260  0.02523108  0.64915574    -0.25800
C1313       C  0.33088693  0.02810184  0.66671220     0.36200
C1314       C  0.31477024  0.04152972  0.66671157    -0.19900
C1315       C  0.31009280  0.05172709  0.64910916    -0.25100
C1316       C  0.32093210  0.04867854  0.63158905     0.27600
H1317       H  0.35411913  0.01483787  0.64897974     0.13300
N1318       N  0.33569001  0.01696305  0.68423433    -0.82400
H1319       H  0.29795643  0.06224079  0.64899782     0.18200
N1320       N  0.31590729  0.05922289  0.61374465    -0.81000
H1321       H  0.34803845  0.00792081  0.68173695     0.33800
H1322       H  0.32376973  0.00744162  0.68716965     0.38300
H1323       H  0.30372778  0.06851912  0.61616360     0.33800
H1324       H  0.32788422  0.06845097  0.61018610     0.30500
H1325       H  0.39119302  0.05381025  0.62237479     0.33800
H1326       H  0.36872044  0.06283972  0.62803273     0.30500
H1327       H  0.34831385  0.99154433  0.56348361     0.38300
H1328       H  0.32579099  0.00045636  0.56915048     0.33800
C1329       C  0.31685936  0.02947288  0.32355329    -0.19900
C1330       C  0.31084313  0.01739834  0.33957269     0.36300
C1331       C  0.32258444  0.01631725  0.35663909    -0.25900
C1332       C  0.34034022  0.02705636  0.35807593     0.02700
C1333       C  0.34699261  0.03833740  0.34170505     0.27500
C1334       C  0.33522155  0.03930034  0.32448158    -0.25000
N1335       N  0.29288408  0.00603880  0.33850988    -0.82400
H1336       H  0.31766632  0.00723829  0.36898899     0.13300
C1337       C  0.35134878  0.02676743  0.37710234     0.02700
N1338       N  0.36531696  0.04922513  0.34288212    -0.81000
H1339       H  0.33992841  0.04850143  0.31215301     0.18200
C1340       C  0.37069764  0.01922470  0.37766945    -0.25800
C1341       C  0.38126126  0.01813965  0.39561997     0.36200
C1342       C  0.37229728  0.02500088  0.41334644    -0.19900
C1343       C  0.35287408  0.03248456  0.41267446    -0.25100
C1344       C  0.34236329  0.03355196  0.39474587     0.27600
H1345       H  0.37741148  0.01380559  0.36409351     0.13300
N1346       N  0.40080198  0.00964034  0.39592101    -0.82400
H1347       H  0.34597357  0.03793474  0.42613156     0.18200
N1348       N  0.32265489  0.04169030  0.39431325    -0.81000
H1349       H  0.40523234  0.00549689  0.38163127     0.33800
H1350       H  0.40007916  0.99659693  0.40429784     0.38300
H1351       H  0.31814382  0.04592407  0.40854805     0.33800
H1352       H  0.32313722  0.05463950  0.38576957     0.30500
H1353       H  0.36809074  0.05672568  0.32958285     0.33800
H1354       H  0.36364601  0.06009108  0.35384247     0.30500
H1355       H  0.29648309  0.99106219  0.34037896     0.38300
H1356       H  0.28376805  0.01028211  0.35033740     0.33800
C1357       C  0.62831226  0.04178614  0.58013630    -0.19900
C1358       C  0.64713563  0.05058641  0.58297018     0.36300
C1359       C  0.65684060  0.04816041  0.60120021    -0.25900
C1360       C  0.64797325  0.03750718  0.61671913     0.02700
C1361       C  0.62903182  0.02910175  0.61414123     0.27500
C1362       C  0.61935119  0.03134702  0.59584641    -0.25000
N1363       N  0.65610742  0.06235584  0.56758110    -0.82400
H1364       H  0.67130552  0.05483955  0.60347355     0.13300
C1365       C  0.65886783  0.03547721  0.63559018     0.02700
N1366       N  0.61985356  0.01818271  0.63002681    -0.81000
H1367       H  0.60491594  0.02458101  0.59372831     0.18200
C1368       C  0.65177918  0.04510056  0.65261728    -0.25800
C1369       C  0.66304035  0.04547340  0.67016109     0.36200
C1370       C  0.68157106  0.03569457  0.67062169    -0.19900
C1371       C  0.68817297  0.02541060  0.65372709    -0.25100
C1372       C  0.67698986  0.02517744  0.63622781     0.27600
H1373       H  0.63783733  0.05306077  0.65191149     0.13300
N1374       N  0.65613671  0.05648600  0.68707650    -0.82400
H1375       H  0.70224927  0.01767752  0.65410930     0.18200
N1376       N  0.68404977  0.01479513  0.61896659    -0.81000
H1377       H  0.64219681  0.06263505  0.68428316     0.33800
H1378       H  0.66588015  0.06841318  0.68920090     0.38300
H1379       H  0.69773408  0.00809396  0.62183260     0.33800
H1380       H  0.67402253  0.00331796  0.61597877     0.30500
H1381       H  0.60585580  0.01301999  0.62574586     0.33800
H1382       H  0.62854666  0.00563355  0.63273440     0.30500
H1383       H  0.64712456  0.07479776  0.56537906     0.38300
H1384       H  0.66997477  0.06768970  0.57208450     0.33800
C1385       C  0.62647614  0.04344239  0.41583617    -0.19900
C1386       C  0.64205138  0.02991738  0.41219318     0.36300
C1387       C  0.65154358  0.03003209  0.39363400    -0.25900
C1388       C  0.64560737  0.04320262  0.37870710     0.02700
C1389       C  0.62980354  0.05637650  0.38210437     0.27500
C1390       C  0.62024737  0.05625282  0.40062720    -0.25000
N1391       N  0.64799784  0.01598937  0.42720140    -0.82400
H1392       H  0.66375604  0.01996555  0.39080716     0.13300
C1393       C  0.65724667  0.04414527  0.36020966     0.02700
N1394       N  0.62377957  0.06999693  0.36684349    -0.81000
H1395       H  0.60826964  0.06660082  0.40340481     0.18200
C1396       C  0.65057176  0.03425198  0.34317532    -0.25800
C1397       C  0.66213308  0.03402206  0.32575783     0.36200
C1398       C  0.68053854  0.04412840  0.32551471    -0.19900
C1399       C  0.68678509  0.05444027  0.34252613    -0.25100
C1400       C  0.67532509  0.05455069  0.35985077     0.27600
H1401       H  0.63658864  0.02629835  0.34367813     0.13300
N1402       N  0.65555925  0.02305720  0.30868389    -0.82400
H1403       H  0.70073538  0.06245051  0.34234479     0.18200
N1404       N  0.68205774  0.06495277  0.37723015    -0.81000
H1405       H  0.66550035  0.01133391  0.30650106     0.33800
H1406       H  0.64168649  0.01663278  0.31132398     0.38300
H1407       H  0.69581874  0.07165441  0.37460944     0.33800
H1408       H  0.67202862  0.07644650  0.38003406     0.30500
H1409       H  0.61184642  0.07862760  0.37169320     0.33800
H1410       H  0.63556736  0.07979893  0.36429897     0.30500
H1411       H  0.63601342  0.00642649  0.42976527     0.38300
H1412       H  0.65968103  0.00715604  0.42211974     0.33800
C1413       C  0.67522226  0.36991867  0.00208748    -0.19900
C1414       C  0.65897082  0.36852520  0.98894622     0.36300
C1415       C  0.64177540  0.37957586  0.99276569    -0.25900
C1416       C  0.64057989  0.39202513  0.00933637     0.02700
C1417       C  0.65705576  0.39419014  0.02198821     0.27500
C1418       C  0.67434621  0.38312933  0.01818581    -0.25000
N1419       N  0.65999793  0.35585192  0.97180342    -0.82400
H1420       H  0.62912251  0.37832542  0.98293078     0.13300
C1421       C  0.62183898  0.40268336  0.01307099     0.02700
N1422       N  0.65595060  0.40726753  0.03880699    -0.81000
H1423       H  0.68683994  0.38421075  0.02822960     0.18200
C1424       C  0.60821622  0.39498053  0.02680954    -0.25800
C1425       C  0.58964888  0.40406470  0.02972235     0.36200
C1426       C  0.58473900  0.42110730  0.01855511    -0.19900
C1427       C  0.59860576  0.42885593  0.00500705    -0.25100
C1428       C  0.61708539  0.41977449  0.00212340     0.27600
H1429       H  0.61204921  0.38175916  0.03511813     0.13300
N1430       N  0.57594409  0.39621091  0.04408265    -0.82400
H1431       H  0.59487220  0.44185354  0.99632497     0.18200
N1432       N  0.63095411  0.42760602  0.98789803    -0.81000
H1433       H  0.58182548  0.38358480  0.05091476     0.33800
H1434       H  0.57421321  0.40688361  0.05521396     0.38300
H1435       H  0.62509535  0.44012667  0.98087741     0.33800
H1436       H  0.64349136  0.43239371  0.99568642     0.30500
H1437       H  0.66928609  0.40703097  0.04674194     0.33800
H1438       H  0.65428893  0.42171631  0.03343467     0.30500
H1439       H  0.67111901  0.36144973  0.96252038     0.38300
H1440       H  0.64676288  0.35644058  0.96374910     0.33800
C1441       C  0.32906649  0.37039423  0.00699716    -0.19900
C1442       C  0.32893356  0.38798569  0.01840638     0.36300
C1443       C  0.34642940  0.39931859  0.01995130    -0.25900
C1444       C  0.36396009  0.39317638  0.01057198     0.02700
C1445       C  0.36395557  0.37593687  0.99877509     0.27500
C1446       C  0.34653329  0.36468974  0.99715571    -0.25000
N1447       N  0.31136856  0.39384103  0.02899292    -0.82400
H1448       H  0.34663338  0.41257449  0.02906935     0.13300
C1449       C  0.38264054  0.40410439  0.01414058     0.02700
N1450       N  0.38174876  0.36985706  0.98867847    -0.81000
H1451       H  0.34661214  0.35134608  0.98817212     0.18200
C1452       C  0.39771288  0.39473399  0.02490512    -0.25800
C1453       C  0.41604777  0.40410038  0.02808806     0.36200
C1454       C  0.41954103  0.42308387  0.01983281    -0.19900
C1455       C  0.40412977  0.43265556  0.00950532    -0.25100
C1456       C  0.38569190  0.42333320  0.00658536     0.27600
H1457       H  0.39506464  0.38004088  0.03092854     0.13300
N1458       N  0.43091904  0.39452360  0.03995646    -0.82400
H1459       H  0.40661395  0.44722363  0.00317354     0.18200
N1460       N  0.37020005  0.43311656  0.99570275    -0.81000
H1461       H  0.42599073  0.38060115  0.04477776     0.33800
H1462       H  0.43299033  0.40315414  0.05268575     0.38300
H1463       H  0.37478200  0.44726946  0.99123839     0.33800
H1464       H  0.36768129  0.42495051  0.98274638     0.30500
H1465       H  0.37931415  0.35673885  0.98073339     0.33800
H1466       H  0.38521092  0.38081519  0.97823801     0.30500
H1467       H  0.30851900  0.38300031  0.03974577     0.38300
H1468       H  0.31378827  0.40713552  0.03662891     0.33800
C1469       C  0.68015668  0.72921541  0.01762958    -0.19900
C1470       C  0.66433198  0.73251661  0.03097431     0.36300
C1471       C  0.64774784  0.71987610  0.03056304    -0.25900
C1472       C  0.64670458  0.70410413  0.01707909     0.02700
C1473       C  0.66282056  0.70020156  0.00434900     0.27500
C1474       C  0.67955853  0.71271004  0.00489603    -0.25000
N1475       N  0.66505880  0.74885697  0.04468408    -0.82400
H1476       H  0.63524537  0.72274183  0.04027601     0.13300
C1477       C  0.62764229  0.69354507  0.01474624     0.02700
N1478       N  0.66167222  0.68416153  0.99031689    -0.81000
H1479       H  0.69170170  0.71018951  0.99465463     0.18200
C1480       C  0.61396537  0.70101859  0.00104839    -0.25800
C1481       C  0.59522453  0.69223072  0.99874213     0.36200
C1482       C  0.59005441  0.67570779  0.01054545    -0.19900
C1483       C  0.60393014  0.66802068  0.02407055    -0.25100
C1484       C  0.62270336  0.67689574  0.02638047     0.27600
H1485       H  0.61797355  0.71382239  0.99214979     0.13300
N1486       N  0.58160408  0.69979378  0.98420621    -0.82400
H1487       H  0.59996720  0.65529629  0.03309041     0.18200
N1488       N  0.63657587  0.66937769  0.04069780    -0.81000
H1489       H  0.58767724  0.71205610  0.97686544     0.33800
H1490       H  0.57959371  0.68874479  0.97348265     0.38300
H1491       H  0.63052387  0.65722710  0.04824630     0.33800
H1492       H  0.64893069  0.66407849  0.03295609     0.30500
H1493       H  0.67458922  0.68353358  0.98173119     0.33800
H1494       H  0.66101528  0.67089823  0.99834245     0.30500
H1495       H  0.67686341  0.74628982  0.05439493     0.38300
H1496       H  0.65219100  0.74928868  0.05335411     0.33800
C1497       C  0.33481083  0.73485911  0.00022510    -0.19900
C1498       C  0.33645977  0.71851101  0.98712374     0.36300
C1499       C  0.35416778  0.70745975  0.98666711    -0.25900
C1500       C  0.37034394  0.71270666  0.99862067     0.02700
C1501       C  0.36874568  0.72888153  0.01173038     0.27500
C1502       C  0.35102148  0.73977296  0.01241378    -0.25000
N1503       N  0.32053172  0.71358237  0.97384617    -0.82400
H1504       H  0.35560284  0.69502548  0.97655773     0.13300
C1505       C  0.38910406  0.70142480  0.99703649     0.02700
N1506       N  0.38518059  0.73416505  0.02426046    -0.81000
H1507       H  0.34985878  0.75213688  0.02262527     0.18200
C1508       C  0.40572268  0.71050451  0.98840050    -0.25800
C1509       C  0.42397450  0.70049459  0.98704270     0.36200
C1510       C  0.42573044  0.68112851  0.99501080    -0.19900
C1511       C  0.40882993  0.67199828  0.00329814    -0.25100
C1512       C  0.39056664  0.68194772  0.00438802     0.27600
H1513       H  0.40435593  0.72543721  0.98257031     0.13300
N1514       N  0.44052431  0.70983962  0.97732480    -0.82400
H1515       H  0.40992220  0.65722779  0.00951470     0.18200
N1516       N  0.37357607  0.67250663  0.01324040    -0.81000
H1517       H  0.43675209  0.72408913  0.97247364     0.33800
H1518       H  0.44376436  0.70153898  0.96461855     0.38300
H1519       H  0.37706807  0.65809616  0.01780430     0.33800
H1520       H  0.36993187  0.68046721  0.02605926     0.30500
H1521       H  0.38168485  0.74653959  0.03295745     0.33800
H1522       H  0.38754930  0.72237437  0.03405945     0.30500
H1523       H  0.31896117  0.72539468  0.96390128     0.38300
H1524       H  0.32411523  0.70110258  0.96534707     0.33800
loop_ 
_geom_bond_atom_site_label_1 
_geom_bond_atom_site_label_2 
_geom_bond_distance 
_geom_bond_site_symmetry_2 
_ccdc_geom_bond_type 
N1            N2   1.321       .  A
N1            C5   1.346       .  A
N1           Cu9   2.083   1_556  S
N2            C3   1.342       .  A
N2           Cu8   2.067   1_556  S
C3            C4   1.386       .  A
C3            H6   1.082       .  S
C4            C5   1.391       .  A
C4         C1510   1.490       .  S
C5            H7   1.081       .  S
Cu8          N11   2.066       .  S
Cu9          N19   2.083       .  S
Cu10         N12   2.056       .  S
Cu10         N18   2.057       .  S
N11          N12   1.321       .  A
N11          C15   1.344       .  A
N12          C13   1.342       .  A
C13          C14   1.380       .  A
C13          H16   1.082       .  S
C14          C15   1.383       .  A
C14          C38   1.465       .  S
C15          H17   1.082       .  S
N18          N19   1.322       .  A
N18          C22   1.343       .  A
N19          C20   1.345       .  A
C20          C21   1.387       .  A
C20          H23   1.082       .  S
C21          C22   1.380       .  A
C21        C1482   1.478       .  S
C22          H24   1.082       .  S
N25          N26   1.322       .  A
N25          C29   1.345       .  A
N25         Cu33   2.084       .  S
N26          C27   1.342       .  A
N26         Cu32   2.060       .  S
C27          C28   1.383       .  A
C27          H30   1.082       .  S
C28          C29   1.389       .  A
C28        C1454   1.485       .  S
C29          H31   1.081       .  S
Cu32         N35   2.059       .  S
Cu33         N43   2.084       .  S
Cu34         N36   2.060       .  S
Cu34         N42   2.060       .  S
N35          N36   1.320       .  A
N35          C39   1.343       .  A
N36          C37   1.343       .  A
C37          C38   1.382       .  A
C37          H40   1.082       .  S
C38          C39   1.381       .  A
C39          H41   1.082       .  S
N42          N43   1.322       .  A
N42          C46   1.340       .  A
N43          C44   1.348       .  A
C44          C45   1.388       .  A
C44          H47   1.082       .  S
C45          C46   1.381       .  A
C45        C1426   1.481       .  S
C46          H48   1.082       .  S
N49          N50   1.322       .  A
N49          C53   1.345       .  A
N49         Cu57   2.073       .  S
N50          C51   1.343       .  A
N50         Cu56   2.066       .  S
C51          C52   1.382       .  A
C51          H54   1.082       .  S
C52          C53   1.386       .  A
C52        C1385   1.478       .  S
C53          H55   1.082       .  S
Cu56         N59   2.066       .  S
Cu57         N67   2.073       .  S
Cu58         N60   2.064       .  S
Cu58         N66   2.065       .  S
N59          N60   1.321       .  A
N59          C63   1.343       .  A
N60          C61   1.345       .  A
C61          C62   1.383       .  A
C61          H64   1.082       .  S
C62          C63   1.382       .  A
C62          C86   1.468       .  S
C63          H65   1.082       .  S
N66          N67   1.322       .  A
N66          C70   1.342       .  A
N67          C68   1.344       .  A
C68          C69   1.386       .  A
C68          H71   1.082       .  S
C69          C70   1.382       .  A
C69        C1357   1.479       .  S
C70          H72   1.082       .  S
N73          N74   1.321       .  A
N73          C77   1.345       .  A
N73         Cu81   2.079       .  S
N74          C75   1.344       .  A
N74         Cu80   2.066       .  S
C75          C76   1.385       .  A
C75          H78   1.081       .  S
C76          C77   1.388       .  A
C76        C1342   1.485       .  S
C77          H79   1.082       .  S
Cu80         N83   2.065       .  S
Cu81         N91   2.079       .  S
Cu82         N84   2.072       .  S
Cu82         N90   2.072       .  S
N83          N84   1.322       .  A
N83          C87   1.343       .  A
N84          C85   1.345       .  A
C85          C86   1.383       .  A
C85          H88   1.082       .  S
C86          C87   1.381       .  A
C87          H89   1.082       .  S
N90          N91   1.321       .  A
N90          C94   1.344       .  A
N91          C92   1.345       .  A
C92          C93   1.389       .  A
C92          H95   1.081       .  S
C93          C94   1.387       .  A
C93        C1301   1.488       .  S
C94          H96   1.082       .  S
O97        Cu105   2.013   1_554  S
O97         C107   1.278       .  A
O98        Cu105   2.016       .  S
O98         C108   1.279       .  A
O99        Cu105   2.023       .  S
O99         C109   1.281       .  A
O100       Cu105   2.026       .  S
O100        C110   1.279       .  A
O101       Cu106   1.992       .  S
O101        C110   1.277       .  A
O102       Cu106   1.996       .  S
O102        C109   1.276       .  A
O103       Cu106   1.994       .  S
O103        C108   1.277       .  A
O104       Cu106   1.998   1_554  S
O104        C107   1.277       .  A
Cu105      Cu106   2.366       .  S
C107       C1217   1.489       .  S
C108       C1245   1.485       .  S
C109       C1273   1.492   1_545  S
C110       C1202   1.482   1_556  S
N111        N112   1.323       .  A
N111        C115   1.347       .  A
N111       Cu119   2.079       .  S
N112        C113   1.340       .  A
N112       Cu118   2.058       .  S
C113        C114   1.378       .  A
C113        H116   1.082       .  S
C114        C115   1.384       .  A
C114       C1230   1.472       .  S
C115        H117   1.082       .  S
Cu118       N121   2.057       .  S
Cu119       N129   2.079       .  S
Cu120       N122   2.054       .  S
Cu120       N128   2.055       .  S
N121        N122   1.318       .  A
N121        C125   1.341       .  A
N122        C123   1.343       .  A
C123        C124   1.383       .  A
C123        H126   1.082       .  S
C124        C125   1.384       .  A
C124       C1161   1.474       .  S
C125        H127   1.082       .  S
N128        N129   1.322       .  A
N128        C132   1.338       .  A
N129        C130   1.348       .  A
C130        C131   1.388       .  A
C130        H133   1.081       .  S
C131        C132   1.381       .  A
C131       C1398   1.480       .  S
C132        H134   1.082       .  S
N135        N136   1.323   1_554  A
N135        C139   1.348       .  A
N135       Cu143   2.085       .  S
N136        C137   1.342       .  A
N136       Cu142   2.072       .  S
C137        C138   1.382       .  A
C137        H140   1.082       .  S
C138        C139   1.387   1_556  A
C138       C1133   1.481       .  S
C139        H141   1.082       .  S
Cu142       N145   2.071       .  S
Cu143       N153   2.085       .  S
Cu144       N146   2.060       .  S
Cu144       N152   2.060       .  S
N145        N146   1.319       .  A
N145        C149   1.344   1_556  A
N146        C147   1.344       .  A
C147        C148   1.385   1_556  A
C147        H150   1.082       .  S
C148        C149   1.388       .  A
C148       C1189   1.483       .  S
C149        H151   1.081       .  S
N152        N153   1.323   1_556  A
N152        C156   1.339       .  A
N153        C154   1.349       .  A
C154        C155   1.387       .  A
C154        H157   1.082       .  S
C155        C156   1.379   1_554  A
C155       C1413   1.477       .  S
C156        H158   1.082       .  S
O159       Cu167   1.983   1_655  S
O159        C169   1.275       .  A
O160       Cu167   1.991       .  S
O160        C170   1.276       .  A
O161       Cu167   2.010       .  S
O161        C171   1.278   1_455  A
O162       Cu167   2.007       .  S
O162        C172   1.278       .  A
O163       Cu168   2.010       .  S
O163        C172   1.278   1_655  A
O164       Cu168   2.004       .  S
O164        C171   1.277       .  A
O165       Cu168   2.007   1_455  S
O165        C170   1.277       .  A
O166       Cu168   2.015       .  S
O166        C169   1.279       .  A
Cu167      Cu168   2.374   1_455  S
C169       C1118   1.479       .  S
C170       C1021   1.469       .  S
C171       C1062   1.471   1_655  S
C172       C1077   1.485   1_545  S
N173        N174   1.323       .  A
N173        C177   1.347       .  A
N173       Cu181   2.079       .  S
N174        C175   1.342       .  A
N174       Cu180   2.066       .  S
C175        C176   1.381       .  A
C175        H178   1.082       .  S
C176        C177   1.385       .  A
C176       C1049   1.476       .  S
C177        H179   1.082       .  S
Cu180       N183   2.066       .  S
Cu181       N191   2.079   1_455  S
Cu182       N184   2.060   1_655  S
Cu182       N190   2.060       .  S
N183        N184   1.319       .  A
N183        C187   1.343       .  A
N184        C185   1.343       .  A
C185        C186   1.385       .  A
C185        H188   1.081   1_455  S
C186        C187   1.386       .  A
C186        C993   1.480       .  S
C187        H189   1.082       .  S
N190        N191   1.322       .  A
N190        C194   1.341       .  A
N191        C192   1.347       .  A
C192        C193   1.386       .  A
C192        H195   1.082       .  S
C193        C194   1.381       .  A
C193        C965   1.477       .  S
C194        H196   1.082       .  S
N197        N198   1.324       .  A
N197        C201   1.350       .  A
N197       Cu205   2.091       .  S
N198        C199   1.339       .  A
N198       Cu204   2.056       .  S
C199        C200   1.376       .  A
C199        H202   1.082       .  S
C200        C201   1.386       .  A
C200        C937   1.472       .  S
C201        H203   1.082       .  S
Cu204       N207   2.056       .  S
Cu205       N215   2.092       .  S
Cu206       N208   2.056       .  S
Cu206       N214   2.058       .  S
N207        N208   1.318       .  A
N207        C211   1.342       .  A
N208        C209   1.342       .  A
C209        C210   1.384       .  A
C209        H212   1.082       .  S
C210        C211   1.384       .  A
C210       C1034   1.475       .  S
C211        H213   1.082       .  S
N214        N215   1.322       .  A
N214        C218   1.340       .  A
N215        C216   1.349       .  A
C216        C217   1.392       .  A
C216        H219   1.081       .  S
C217        C218   1.382       .  A
C217       C1314   1.487       .  S
C218        H220   1.082       .  S
O221       Cu229   2.001       .  S
O221        C231   1.278       .  A
O222       Cu229   1.999   1_554  S
O222        C232   1.277       .  A
O223       Cu229   1.997       .  S
O223        C233   1.276       .  A
O224       Cu229   1.998       .  S
O224        C234   1.277       .  A
O225       Cu230   2.011       .  S
O225        C234   1.278       .  A
O226       Cu230   2.009       .  S
O226        C233   1.279       .  A
O227       Cu230   2.013   1_554  S
O227        C232   1.278       .  A
O228       Cu230   2.008       .  S
O228        C231   1.277       .  A
Cu229      Cu230   2.368       .  S
C231        C950   1.489       .  S
C232        C894   1.483       .  S
C233        C853   1.486       .  S
C234        C922   1.479   1_545  S
O235       Cu243   2.013       .  S
O235        C245   1.278       .  A
O236       Cu243   2.010   1_455  S
O236        C246   1.278       .  A
O237       Cu243   1.977   1_455  S
O237        C247   1.275       .  A
O238       Cu243   1.974       .  S
O238        C248   1.273       .  A
O239       Cu244   2.023       .  S
O239        C248   1.280       .  A
O240       Cu244   2.023   1_455  S
O240        C247   1.280       .  A
O241       Cu244   2.014       .  S
O241        C246   1.278   1_655  A
O242       Cu244   2.014       .  S
O242        C245   1.278       .  A
Cu243      Cu244   2.371       .  S
C245        C838   1.477   1_545  S
C246        C810   1.482       .  S
C247        C769   1.480       .  S
C248       C1174   1.478       .  S
O249       Cu257   2.000   1_655  S
O249        C259   1.277       .  A
O250       Cu257   2.004       .  S
O250        C260   1.277       .  A
O251       Cu257   1.991   1_554  S
O251        C261   1.276       .  A
O252       Cu257   1.987       .  S
O252        C262   1.275       .  A
O253       Cu258   2.014       .  S
O253        C262   1.279       .  A
O254       Cu258   2.018   1_554  S
O254        C261   1.279       .  A
O255       Cu258   2.013       .  S
O255        C260   1.279       .  A
O256       Cu258   2.012   1_655  S
O256        C259   1.278       .  A
Cu257      Cu258   2.367       .  S
C259       C1146   1.484       .  S
C260        C726   1.483       .  S
C261        C754   1.490       .  S
C262       C1006   1.486       .  S
N263        N264   1.323   1_455  A
N263        C267   1.348       .  A
N263       Cu271   2.083       .  S
N264        C265   1.343       .  A
N264       Cu270   2.067       .  S
C265        C266   1.379       .  A
C265        H268   1.082       .  S
C266        C267   1.384   1_655  A
C266        C797   1.473       .  S
C267        H269   1.082       .  S
Cu270       N273   2.067   1_655  S
Cu271       N281   2.083       .  S
Cu272       N274   2.065       .  S
Cu272       N280   2.065       .  S
N273        N274   1.320       .  A
N273        C277   1.343   1_455  A
N274        C275   1.345       .  A
C275        C276   1.386       .  A
C275        H278   1.082       .  S
C276        C277   1.386   1_455  A
C276        C741   1.482       .  S
C277        H279   1.081       .  S
N280        N281   1.322       .  A
N280        C284   1.340       .  A
N281        C282   1.348       .  A
C282        C283   1.390       .  A
C282        H285   1.081       .  S
C283        C284   1.384       .  A
C283        C685   1.488       .  S
C284        H286   1.082       .  S
N287        N288   1.322       .  A
N287        C291   1.349       .  A
N287       Cu295   2.089       .  S
N288        C289   1.339       .  A
N288       Cu294   2.059       .  S
C289        C290   1.382       .  A
C289        H292   1.082       .  S
C290        C291   1.391       .  A
C290        C881   1.486       .  S
C291        H293   1.081       .  S
Cu294       N297   2.058       .  S
Cu295       N305   2.089       .  S
Cu296       N298   2.060       .  S
Cu296       N304   2.061       .  S
N297        N298   1.318       .  A
N297        C301   1.342       .  A
N298        C299   1.344       .  A
C299        C300   1.385       .  A
C299        H302   1.082       .  S
C300        C301   1.385       .  A
C300        C782   1.479       .  S
C301        H303   1.081       .  S
N304        N305   1.323       .  A
N304        C308   1.339       .  A
N305        C306   1.349       .  A
C306        C307   1.388       .  A
C306        H309   1.082       .  S
C307        C308   1.380       .  A
C307       C1329   1.479       .  S
C308        H310   1.082       .  S
N311        N312   1.323       .  A
N311        C315   1.349       .  A
N311       Cu319   2.085       .  S
N312        C313   1.341       .  A
N312       Cu318   2.068       .  S
C313        C314   1.380       .  A
C313        H316   1.082       .  S
C314        C315   1.386       .  A
C314        C713   1.478       .  S
C315        H317   1.082       .  S
Cu318       N321   2.068       .  S
Cu319       N329   2.085   1_556  S
Cu320       N322   2.055       .  S
Cu320       N328   2.056   1_556  S
N321        N322   1.318       .  A
N321        C325   1.343       .  A
N322        C323   1.343       .  A
C323        C324   1.385       .  A
C323        H326   1.081       .  S
C324        C325   1.387       .  A
C324        C866   1.481       .  S
C325        H327   1.082       .  S
N328        N329   1.322       .  A
N328        C332   1.339       .  A
N329        C330   1.348       .  A
C330        C331   1.388       .  A
C330        H333   1.082       .  S
C331        C332   1.380       .  A
C331       C1441   1.479       .  S
C332        H334   1.082       .  S
O335       Cu343   2.019   1_554  S
O335        C345   1.279       .  A
O336       Cu343   2.017       .  S
O336        C346   1.279       .  A
O337       Cu343   2.020       .  S
O337        C347   1.279       .  A
O338       Cu343   2.006   1_655  S
O338        C348   1.277       .  A
O339       Cu344   2.009   1_654  S
O339        C348   1.278   1_554  A
O340       Cu344   2.000       .  S
O340        C347   1.277       .  A
O341       Cu344   2.000       .  S
O341        C346   1.277       .  A
O342       Cu344   1.989   1_554  S
O342        C345   1.275       .  A
Cu343      Cu344   2.372       .  S
C345        C614   1.471       .  S
C346        C670   1.481       .  S
C347        C573   1.485       .  S
C348        C642   1.478   1_556  S
N349        N350   1.325       .  A
N349        C353   1.348       .  A
N349       Cu357   2.091   1_455  S
N350        C351   1.346       .  A
N350       Cu356   2.083       .  S
C351        C352   1.382       .  A
C351        H354   1.082       .  S
C352        C353   1.384       .  A
C352        C825   1.479       .  S
C353        H355   1.082       .  S
Cu356       N359   2.082       .  S
Cu357       N367   2.090       .  S
Cu358       N360   2.055       .  S
Cu358       N366   2.056       .  S
N359        N360   1.320   1_455  A
N359        C363   1.347       .  A
N360        C361   1.342       .  A
C361        C362   1.381       .  A
C361        H364   1.082       .  S
C362        C363   1.388   1_655  A
C362        C601   1.479       .  S
C363        H365   1.082       .  S
N366        N367   1.321       .  A
N366        C370   1.340       .  A
N367        C368   1.350       .  A
C368        C369   1.391       .  A
C368        H371   1.082       .  S
C369        C370   1.381       .  A
C369        C558   1.484       .  S
C370        H372   1.082       .  S
N373        N374   1.322       .  A
N373        C377   1.349       .  A
N373       Cu381   2.088       .  S
N374        C375   1.341       .  A
N374       Cu380   2.065       .  S
C375        C376   1.383       .  A
C375        H378   1.082       .  S
C376        C377   1.390       .  A
C376        C586   1.487       .  S
C377        H379   1.081       .  S
Cu380       N383   2.065       .  S
Cu381       N391   2.088       .  S
Cu382       N384   2.065       .  S
Cu382       N390   2.066       .  S
N383        N384   1.320   1_556  A
N383        C387   1.343       .  A
N384        C385   1.345       .  A
C385        C386   1.384       .  A
C385        H388   1.082       .  S
C386        C387   1.384   1_554  A
C386        C909   1.476       .  S
C387        H389   1.082       .  S
N390        N391   1.322   1_554  A
N390        C394   1.342       .  A
N391        C392   1.348       .  A
C392        C393   1.390   1_556  A
C392        H395   1.081       .  S
C393        C394   1.384       .  A
C393       C1497   1.488       .  S
C394        H396   1.082       .  S
N397        N398   1.322       .  A
N397        C401   1.350       .  A
N397       Cu405   2.092       .  S
N398        C399   1.340       .  A
N398       Cu404   2.062       .  S
C399        C400   1.381       .  A
C399        H402   1.082       .  S
C400        C401   1.390       .  A
C400       C1090   1.484       .  S
C401        H403   1.082       .  S
Cu404       N407   2.061   1_455  S
Cu405       N415   2.092   1_455  S
Cu406       N408   2.069       .  S
Cu406       N414   2.070       .  S
N407        N408   1.319       .  A
N407        C411   1.343       .  A
N408        C409   1.345       .  A
C409        C410   1.388       .  A
C409        H412   1.082       .  S
C410        C411   1.386       .  A
C410        C657   1.484       .  S
C411        H413   1.081       .  S
N414        N415   1.324       .  A
N414        C418   1.342       .  A
N415        C416   1.350   1_655  A
C416        C417   1.386   1_455  A
C416        H419   1.082       .  S
C417        C418   1.379       .  A
C417        C517   1.477       .  S
C418        H420   1.082       .  S
N421        N422   1.322       .  A
N421        C425   1.348       .  A
N421       Cu429   2.082       .  S
N422        C423   1.340       .  A
N422       Cu428   2.062       .  S
C423        C424   1.381       .  A
C423        H426   1.082       .  S
C424        C425   1.387       .  A
C424       C1258   1.480       .  S
C425        H427   1.082       .  S
Cu428       N431   2.062       .  S
Cu429       N439   2.082       .  S
Cu430       N432   2.058       .  S
Cu430       N438   2.059       .  S
N431        N432   1.319       .  A
N431        C435   1.342       .  A
N432        C433   1.344       .  A
C433        C434   1.384       .  A
C433        H436   1.082       .  S
C434        C435   1.384       .  A
C434       C1105   1.475       .  S
C435        H437   1.082       .  S
N438        N439   1.323       .  A
N438        C442   1.339       .  A
N439        C440   1.347       .  A
C440        C441   1.387       .  A
C440        H443   1.081       .  S
C441        C442   1.380       .  A
C441       C1370   1.479       .  S
C442        H444   1.082       .  S
N445        N446   1.322   1_554  A
N445        C449   1.347       .  A
N445       Cu453   2.080       .  S
N446        C447   1.342       .  A
N446       Cu452   2.071       .  S
C447        C448   1.385       .  A
C447        H450   1.082       .  S
C448        C449   1.389   1_556  A
C448        C629   1.487       .  S
C449        H451   1.081       .  S
Cu452       N455   2.070       .  S
Cu453       N463   2.080       .  S
Cu454       N456   2.075   1_554  S
Cu454       N462   2.076       .  S
N455        N456   1.321       .  A
N455        C459   1.345       .  A
N456        C457   1.346       .  A
C457        C458   1.386       .  A
C457        H460   1.082   1_556  S
C458        C459   1.384       .  A
C458       C1286   1.482       .  S
C459        H461   1.082       .  S
N462        N463   1.323       .  A
N462        C466   1.343       .  A
N463        C464   1.348       .  A
C464        C465   1.385       .  A
C464        H467   1.082       .  S
C465        C466   1.383       .  A
C465       C1469   1.480       .  S
C466        H468   1.082       .  S
N469        N470   1.323   1_455  A
N469        C473   1.347       .  A
N469       Cu477   2.082       .  S
N470        C471   1.343       .  A
N470       Cu476   2.069       .  S
C471        C472   1.383       .  A
C471        H474   1.082       .  S
C472        C473   1.387   1_655  A
C472        C978   1.481       .  S
C473        H475   1.082       .  S
Cu476       N479   2.069       .  S
Cu477       N487   2.082       .  S
Cu478       N480   2.072       .  S
Cu478       N486   2.072       .  S
N479        N480   1.321       .  A
N479        C483   1.345       .  A
N480        C481   1.344       .  A
C481        C482   1.383       .  A
C481        H484   1.082       .  S
C482        C483   1.383       .  A
C482        C506   1.471       .  S
C483        H485   1.082       .  S
N486        N487   1.321   1_655  A
N486        C490   1.344       .  A
N487        C488   1.346       .  A
C488        C489   1.390       .  A
C488        H491   1.082       .  S
C489        C490   1.387   1_455  A
C489        C530   1.490       .  S
C490        H492   1.081       .  S
N493        N494   1.321       .  A
N493        C497   1.345       .  A
N493       Cu501   2.076       .  S
N494        C495   1.344       .  A
N494       Cu500   2.073       .  S
C495        C496   1.386       .  A
C495        H498   1.082       .  S
C496        C497   1.387       .  A
C496        C698   1.485       .  S
C497        H499   1.081       .  S
Cu500       N503   2.073       .  S
Cu501       N511   2.076       .  S
Cu502       N504   2.076       .  S
Cu502       N510   2.077       .  S
N503        N504   1.323       .  A
N503        C507   1.345       .  A
N504        C505   1.345       .  A
C505        C506   1.383       .  A
C505        H508   1.082       .  S
C506        C507   1.383       .  A
C507        H509   1.082       .  S
N510        N511   1.322       .  A
N510        C514   1.346       .  A
N511        C512   1.345       .  A
C512        C513   1.384       .  A
C512        H515   1.082       .  S
C513        C514   1.386       .  A
C513        C545   1.482       .  S
C514        H516   1.082       .  S
C517        C518   1.410       .  A
C517        C522   1.402   1_655  A
C518        C519   1.404       .  A
C518        N523   1.438       .  S
C519        C520   1.404   1_655  A
C519        H524   1.084       .  S
C520        C521   1.413       .  A
C520        C525   1.489       .  S
C521        C522   1.409       .  A
C521        N526   1.437       .  S
C522        H527   1.084       .  S
N523        H543   1.046       .  S
N523        H544   1.046       .  S
C525        C528   1.402       .  A
C525        C532   1.411       .  A
N526        H541   1.046       .  S
N526        H542   1.045       .  S
C528        C529   1.407       .  A
C528        H533   1.084       .  S
C529        C530   1.416       .  A
C529        N534   1.437       .  S
C530        C531   1.406       .  A
C531        C532   1.406       .  A
C531        H535   1.083   1_455  S
C532        N536   1.438   1_455  S
N534        H537   1.045       .  S
N534        H538   1.046       .  S
N536        H539   1.046       .  S
N536        H540   1.046   1_655  S
C545        C546   1.414       .  A
C545        C550   1.404       .  A
C546        C547   1.408       .  A
C546        N551   1.437       .  S
C547        C548   1.401       .  A
C547        H552   1.084       .  S
C548        C549   1.408       .  A
C548        C553   1.479       .  S
C549        C550   1.405       .  A
C549        N554   1.438   1_655  S
C550        H555   1.083   1_655  S
N551        H571   1.045       .  S
N551        H572   1.046       .  S
C553        C556   1.402       .  A
C553        C560   1.406       .  A
N554        H569   1.046       .  S
N554        H570   1.046       .  S
C556        C557   1.408       .  A
C556        H561   1.084   1_655  S
C557        C558   1.413       .  A
C557        N562   1.437   1_655  S
C558        C559   1.406       .  A
C559        C560   1.404       .  A
C559        H563   1.083       .  S
C560        N564   1.438       .  S
N562        H565   1.045       .  S
N562        H566   1.046       .  S
N564        H567   1.047       .  S
N564        H568   1.045       .  S
C573        C574   1.416   1_556  A
C573        C578   1.407       .  A
C574        C575   1.403       .  A
C574        N579   1.438       .  S
C575        C576   1.399   1_554  A
C575        H580   1.084       .  S
C576        C577   1.407       .  A
C576        C581   1.480       .  S
C577        C578   1.409       .  A
C577        N582   1.437       .  S
C578        H583   1.083       .  S
N579        H599   1.045       .  S
N579        H600   1.046       .  S
C581        C584   1.401   1_556  A
C581        C588   1.407       .  A
N582        H597   1.045       .  S
N582        H598   1.046       .  S
C584        C585   1.410       .  A
C584        H589   1.084       .  S
C585        C586   1.416   1_554  A
C585        N590   1.437       .  S
C586        C587   1.405       .  A
C587        C588   1.402       .  A
C587        H591   1.083       .  S
C588        N592   1.438       .  S
N590        H593   1.045       .  S
N590        H594   1.046       .  S
N592        H595   1.045       .  S
N592        H596   1.046       .  S
C601        C602   1.411       .  A
C601        C606   1.405   1_655  A
C602        C603   1.404       .  A
C602        N607   1.437       .  S
C603        C604   1.401   1_655  A
C603        H608   1.084       .  S
C604        C605   1.407       .  A
C604        C609   1.475       .  S
C605        C606   1.405       .  A
C605        N610   1.438       .  S
C606        H611   1.084       .  S
N607        H627   1.046       .  S
N607        H628   1.046       .  S
C609        C612   1.400       .  A
C609        C616   1.409   1_455  A
N610        H625   1.045       .  S
N610        H626   1.044       .  S
C612        C613   1.402       .  A
C612        H617   1.084       .  S
C613        C614   1.410       .  A
C613        N618   1.438       .  S
C614        C615   1.403   1_455  A
C615        C616   1.406       .  A
C615        H619   1.084       .  S
C616        N620   1.438       .  S
N618        H621   1.047       .  S
N618        H622   1.044       .  S
N620        H623   1.046       .  S
N620        H624   1.043       .  S
C629        C630   1.416   1_556  A
C629        C634   1.406       .  A
C630        C631   1.408       .  A
C630        N635   1.437       .  S
C631        C632   1.400       .  A
C631        H636   1.084       .  S
C632        C633   1.406   1_554  A
C632        C637   1.477       .  S
C633        C634   1.403       .  A
C633        N638   1.438       .  S
C634        H639   1.083       .  S
N635        H655   1.047       .  S
N635        H656   1.044       .  S
C637        C640   1.400   1_554  A
C637        C644   1.408       .  A
N638        H653   1.046       .  S
N638        H654   1.045       .  S
C640        C641   1.406       .  A
C640        H645   1.084       .  S
C641        C642   1.414   1_556  A
C641        N646   1.438       .  S
C642        C643   1.404       .  A
C643        C644   1.405       .  A
C643        H647   1.084       .  S
C644        N648   1.438       .  S
N646        H649   1.045       .  S
N646        H650   1.045       .  S
N648        H651   1.046       .  S
N648        H652   1.045       .  S
C657        C658   1.414       .  A
C657        C662   1.406       .  A
C658        C659   1.405       .  A
C658        N663   1.438       .  S
C659        C660   1.402       .  A
C659        H664   1.084       .  S
C660        C661   1.409       .  A
C660        C665   1.482       .  S
C661        C662   1.405       .  A
C661        N666   1.438   1_655  S
C662        H667   1.083   1_655  S
N663        H683   1.045       .  S
N663        H684   1.046       .  S
C665        C668   1.403       .  A
C665        C672   1.409   1_655  A
N666        H681   1.046       .  S
N666        H682   1.046       .  S
C668        C669   1.408       .  A
C668        H673   1.084       .  S
C669        C670   1.414   1_655  A
C669        N674   1.438       .  S
C670        C671   1.404       .  A
C671        C672   1.403       .  A
C671        H675   1.084       .  S
C672        N676   1.438       .  S
N674        H677   1.045       .  S
N674        H678   1.046       .  S
N676        H679   1.046       .  S
N676        H680   1.045       .  S
C685        C686   1.414       .  A
C685        C690   1.407       .  A
C686        C687   1.409       .  A
C686        N691   1.437       .  S
C687        C688   1.404       .  A
C687        H692   1.084       .  S
C688        C689   1.408       .  A
C688        C693   1.485       .  S
C689        C690   1.402       .  A
C689        N694   1.438   1_455  S
C690        H695   1.082       .  S
N691        H711   1.046       .  S
N691        H712   1.045       .  S
C693        C696   1.403       .  A
C693        C700   1.409   1_455  A
N694        H709   1.046       .  S
N694        H710   1.046       .  S
C696        C697   1.406       .  A
C696        H701   1.084       .  S
C697        C698   1.414   1_455  A
C697        N702   1.437       .  S
C698        C699   1.406       .  A
C699        C700   1.406       .  A
C699        H703   1.083       .  S
C700        N704   1.438       .  S
N702        H705   1.045       .  S
N702        H706   1.046       .  S
N704        H707   1.045       .  S
N704        H708   1.046       .  S
C713        C714   1.412       .  A
C713        C718   1.403   1_556  A
C714        C715   1.404       .  A
C714        N719   1.438       .  S
C715        C716   1.399       .  A
C715        H720   1.084       .  S
C716        C717   1.409   1_556  A
C716        C721   1.477       .  S
C717        C718   1.407       .  A
C717        N722   1.438       .  S
C718        H723   1.084       .  S
N719        H739   1.046       .  S
N719        H740   1.046       .  S
C721        C724   1.400       .  A
C721        C728   1.406       .  A
N722        H737   1.045       .  S
N722        H738   1.045       .  S
C724        C725   1.405   1_556  A
C724        H729   1.084   1_556  S
C725        C726   1.415   1_554  A
C725        N730   1.438       .  S
C726        C727   1.407       .  A
C727        C728   1.406       .  A
C727        H731   1.084       .  S
C728        N732   1.437       .  S
N730        H733   1.045       .  S
N730        H734   1.046       .  S
N732        H735   1.045       .  S
N732        H736   1.045       .  S
C741        C742   1.413   1_455  A
C741        C746   1.405       .  A
C742        C743   1.404       .  A
C742        N747   1.437       .  S
C743        C744   1.402   1_655  A
C743        H748   1.084       .  S
C744        C745   1.409       .  A
C744        C749   1.481       .  S
C745        C746   1.405       .  A
C745        N750   1.438       .  S
C746        H751   1.083       .  S
N747        H767   1.046       .  S
N747        H768   1.046       .  S
C749        C752   1.401       .  A
C749        C756   1.408       .  A
N750        H765   1.045       .  S
N750        H766   1.046       .  S
C752        C753   1.407       .  A
C752        H757   1.084   1_455  S
C753        C754   1.418       .  A
C753        N758   1.437       .  S
C754        C755   1.409       .  A
C755        C756   1.402       .  A
C755        H759   1.083       .  S
C756        N760   1.439       .  S
N758        H761   1.046       .  S
N758        H762   1.045   1_455  S
N760        H763   1.046       .  S
N760        H764   1.045       .  S
C769        C770   1.414       .  A
C769        C774   1.405       .  A
C770        C771   1.408       .  A
C770        N775   1.438       .  S
C771        C772   1.404       .  A
C771        H776   1.084       .  S
C772        C773   1.408       .  A
C772        C777   1.480       .  S
C773        C774   1.398       .  A
C773        N778   1.439       .  S
C774        H779   1.084       .  S
N775        H795   1.046       .  S
N775        H796   1.045       .  S
C777        C780   1.402       .  A
C777        C784   1.408       .  A
N778        H793   1.046       .  S
N778        H794   1.045       .  S
C780        C781   1.402       .  A
C780        H785   1.084       .  S
C781        C782   1.413       .  A
C781        N786   1.438       .  S
C782        C783   1.405       .  A
C783        C784   1.405       .  A
C783        H787   1.083       .  S
C784        N788   1.438       .  S
N786        H789   1.046       .  S
N786        H790   1.045       .  S
N788        H791   1.046       .  S
N788        H792   1.046       .  S
C797        C798   1.409       .  A
C797        C802   1.402   1_655  A
C798        C799   1.405       .  A
C798        N803   1.438       .  S
C799        C800   1.403       .  A
C799        H804   1.084       .  S
C800        C801   1.411   1_655  A
C800        C805   1.482       .  S
C801        C802   1.406       .  A
C801        N806   1.437       .  S
C802        H807   1.084       .  S
N803        H823   1.045       .  S
N803        H824   1.046       .  S
C805        C808   1.402   1_655  A
C805        C812   1.409       .  A
N806        H821   1.046       .  S
N806        H822   1.045       .  S
C808        C809   1.405       .  A
C808        H813   1.084       .  S
C809        C810   1.413       .  A
C809        N814   1.438       .  S
C810        C811   1.406   1_455  A
C811        C812   1.407       .  A
C811        H815   1.084       .  S
C812        N816   1.438       .  S
N814        H817   1.046       .  S
N814        H818   1.046       .  S
N816        H819   1.046       .  S
N816        H820   1.046       .  S
C825        C826   1.410       .  A
C825        C830   1.403   1_455  A
C826        C827   1.407       .  A
C826        N831   1.437       .  S
C827        C828   1.404       .  A
C827        H832   1.084       .  S
C828        C829   1.411   1_455  A
C828        C833   1.487       .  S
C829        C830   1.408       .  A
C829        N834   1.437       .  S
C830        H835   1.084       .  S
N831        H851   1.045       .  S
N831        H852   1.046       .  S
C833        C836   1.404   1_455  A
C833        C840   1.411       .  A
N834        H849   1.046       .  S
N834        H850   1.045       .  S
C836        C837   1.407       .  A
C836        H841   1.084       .  S
C837        C838   1.410       .  A
C837        N842   1.438       .  S
C838        C839   1.403   1_655  A
C839        C840   1.407       .  A
C839        H843   1.084       .  S
C840        N844   1.437       .  S
N842        H845   1.046       .  S
N842        H846   1.046   1_565  S
N844        H847   1.046       .  S
N844        H848   1.045       .  S
C853        C854   1.418       .  A
C853        C858   1.408       .  A
C854        C855   1.402       .  A
C854        N859   1.438   1_556  S
C855        C856   1.400       .  A
C855        H860   1.084       .  S
C856        C857   1.407       .  A
C856        C861   1.479       .  S
C857        C858   1.405       .  A
C857        N862   1.438       .  S
C858        H863   1.083       .  S
N859        H879   1.046       .  S
N859        H880   1.045       .  S
C861        C864   1.401   1_556  A
C861        C868   1.408       .  A
N862        H877   1.046       .  S
N862        H878   1.045       .  S
C864        C865   1.406       .  A
C864        H869   1.084       .  S
C865        C866   1.416   1_554  A
C865        N870   1.437       .  S
C866        C867   1.404       .  A
C867        C868   1.402       .  A
C867        H871   1.083       .  S
C868        N872   1.438       .  S
N870        H873   1.046       .  S
N870        H874   1.046       .  S
N872        H875   1.046       .  S
N872        H876   1.045       .  S
C881        C882   1.414       .  A
C881        C886   1.406       .  A
C882        C883   1.408       .  A
C882        N887   1.437       .  S
C883        C884   1.402       .  A
C883        H888   1.084       .  S
C884        C885   1.407       .  A
C884        C889   1.481       .  S
C885        C886   1.402       .  A
C885        N890   1.438       .  S
C886        H891   1.083       .  S
N887        H907   1.047       .  S
N887        H908   1.044       .  S
C889        C892   1.401       .  A
C889        C896   1.408       .  A
N890        H905   1.046       .  S
N890        H906   1.045       .  S
C892        C893   1.402       .  A
C892        H897   1.084       .  S
C893        C894   1.415       .  A
C893        N898   1.438       .  S
C894        C895   1.407       .  A
C895        C896   1.407       .  A
C895        H899   1.083       .  S
C896        N900   1.437       .  S
N898        H901   1.047       .  S
N898        H902   1.044       .  S
N900        H903   1.046       .  S
N900        H904   1.045       .  S
C909        C910   1.412       .  A
C909        C914   1.403   1_554  A
C910        C911   1.406       .  A
C910        N915   1.437       .  S
C911        C912   1.401   1_554  A
C911        H916   1.084       .  S
C912        C913   1.407       .  A
C912        C917   1.474       .  S
C913        C914   1.402       .  A
C913        N918   1.438       .  S
C914        H919   1.084       .  S
N915        H935   1.046       .  S
N915        H936   1.045       .  S
C917        C920   1.401       .  A
C917        C924   1.406   1_556  A
N918        H933   1.046       .  S
N918        H934   1.045       .  S
C920        C921   1.408       .  A
C920        H925   1.084       .  S
C921        C922   1.415       .  A
C921        N926   1.438       .  S
C922        C923   1.404   1_556  A
C923        C924   1.401       .  A
C923        H927   1.084       .  S
C924        N928   1.438       .  S
N926        H929   1.046       .  S
N926        H930   1.046       .  S
N928        H931   1.046       .  S
N928        H932   1.045       .  S
C937        C938   1.409       .  A
C937        C942   1.402       .  A
C938        C939   1.401       .  A
C938        N943   1.438       .  S
C939        C940   1.402       .  A
C939        H944   1.084       .  S
C940        C941   1.412       .  A
C940        C945   1.482       .  S
C941        C942   1.407       .  A
C941        N946   1.438       .  S
C942        H947   1.084       .  S
N943        H963   1.046       .  S
N943        H964   1.046       .  S
C945        C948   1.400       .  A
C945        C952   1.409       .  A
N946        H961   1.045       .  S
N946        H962   1.046       .  S
C948        C949   1.406       .  A
C948        H953   1.084       .  S
C949        C950   1.419       .  A
C949        N954   1.438       .  S
C950        C951   1.408       .  A
C951        C952   1.403       .  A
C951        H955   1.083       .  S
C952        N956   1.438       .  S
N954        H957   1.045       .  S
N954        H958   1.046       .  S
N956        H959   1.046       .  S
N956        H960   1.046       .  S
C965        C966   1.412       .  A
C965        C970   1.404   1_655  A
C966        C967   1.403       .  A
C966        N971   1.438       .  S
C967        C968   1.399       .  A
C967        H972   1.084       .  S
C968        C969   1.408   1_655  A
C968        C973   1.476       .  S
C969        C970   1.406       .  A
C969        N974   1.437       .  S
C970        H975   1.083       .  S
N971        H991   1.046       .  S
N971        H992   1.046       .  S
C973        C976   1.401   1_655  A
C973        C980   1.406       .  A
N974        H989   1.046       .  S
N974        H990   1.045       .  S
C976        C977   1.406       .  A
C976        H981   1.084       .  S
C977        C978   1.413   1_455  A
C977        N982   1.437       .  S
C978        C979   1.405       .  A
C979        C980   1.404       .  A
C979        H983   1.083       .  S
C980        N984   1.438       .  S
N982        H985   1.046       .  S
N982        H986   1.045       .  S
N984        H987   1.045       .  S
N984        H988   1.046       .  S
C993        C994   1.415   1_455  A
C993        C998   1.404       .  A
C994        C995   1.404       .  A
C994        N999   1.437       .  S
C995        C996   1.400   1_655  A
C995       H1000   1.084       .  S
C996        C997   1.409       .  A
C996       C1001   1.478       .  S
C997        C998   1.402       .  A
C997       N1002   1.438       .  S
C998       H1003   1.083       .  S
N999       H1019   1.046       .  S
N999       H1020   1.045       .  S
C1001      C1004   1.398   1_455  A
C1001      C1008   1.408       .  A
N1002      H1017   1.046       .  S
N1002      H1018   1.045       .  S
C1004      C1005   1.400       .  A
C1004      H1009   1.084       .  S
C1005      C1006   1.418   1_655  A
C1005      N1010   1.438       .  S
C1006      C1007   1.408       .  A
C1007      C1008   1.406       .  A
C1007      H1011   1.083       .  S
C1008      N1012   1.438       .  S
N1010      H1013   1.046       .  S
N1010      H1014   1.046       .  S
N1012      H1015   1.046       .  S
N1012      H1016   1.045       .  S
C1021      C1022   1.411       .  A
C1021      C1026   1.402       .  A
C1022      C1023   1.405       .  A
C1022      N1027   1.437       .  S
C1023      C1024   1.400       .  A
C1023      H1028   1.084       .  S
C1024      C1025   1.406       .  A
C1024      C1029   1.470       .  S
C1025      C1026   1.400       .  A
C1025      N1030   1.438       .  S
C1026      H1031   1.084       .  S
N1027      H1047   1.046       .  S
N1027      H1048   1.045       .  S
C1029      C1032   1.400       .  A
C1029      C1036   1.405       .  A
N1030      H1045   1.046       .  S
N1030      H1046   1.045       .  S
C1032      C1033   1.401       .  A
C1032      H1037   1.084       .  S
C1033      C1034   1.411       .  A
C1033      N1038   1.438       .  S
C1034      C1035   1.405       .  A
C1035      C1036   1.403       .  A
C1035      H1039   1.083       .  S
C1036      N1040   1.438       .  S
N1038      H1041   1.046       .  S
N1038      H1042   1.046       .  S
N1040      H1043   1.045       .  S
N1040      H1044   1.046       .  S
C1049      C1050   1.411       .  A
C1049      C1054   1.403   1_455  A
C1050      C1051   1.403       .  A
C1050      N1055   1.438       .  S
C1051      C1052   1.401       .  A
C1051      H1056   1.084       .  S
C1052      C1053   1.409   1_455  A
C1052      C1057   1.479       .  S
C1053      C1054   1.406       .  A
C1053      N1058   1.437       .  S
C1054      H1059   1.084       .  S
N1055      H1075   1.046       .  S
N1055      H1076   1.046       .  S
C1057      C1060   1.404   1_455  A
C1057      C1064   1.409       .  A
N1058      H1073   1.045       .  S
N1058      H1074   1.046       .  S
C1060      C1061   1.406       .  A
C1060      H1065   1.084       .  S
C1061      C1062   1.409   1_655  A
C1061      N1066   1.438       .  S
C1062      C1063   1.402       .  A
C1063      C1064   1.404       .  A
C1063      H1067   1.083       .  S
C1064      N1068   1.438       .  S
N1066      H1069   1.045       .  S
N1066      H1070   1.046       .  S
N1068      H1071   1.045       .  S
N1068      H1072   1.046       .  S
C1077      C1078   1.415   1_455  A
C1077      C1082   1.407       .  A
C1078      C1079   1.404       .  A
C1078      N1083   1.438       .  S
C1079      C1080   1.403   1_655  A
C1079      H1084   1.084       .  S
C1080      C1081   1.409       .  A
C1080      C1085   1.485       .  S
C1081      C1082   1.407       .  A
C1081      N1086   1.438       .  S
C1082      H1087   1.083       .  S
N1083      H1103   1.043   1_565  S
N1083      H1104   1.049       .  S
C1085      C1088   1.404   1_455  A
C1085      C1092   1.409       .  A
N1086      H1101   1.046       .  S
N1086      H1102   1.045       .  S
C1088      C1089   1.409       .  A
C1088      H1093   1.084       .  S
C1089      C1090   1.413   1_655  A
C1089      N1094   1.437       .  S
C1090      C1091   1.405       .  A
C1091      C1092   1.402       .  A
C1091      H1095   1.083       .  S
C1092      N1096   1.438       .  S
N1094      H1097   1.044       .  S
N1094      H1098   1.047       .  S
N1096      H1099   1.046       .  S
N1096      H1100   1.045       .  S
C1105      C1106   1.412       .  A
C1105      C1110   1.402       .  A
C1106      C1107   1.405       .  A
C1106      N1111   1.437       .  S
C1107      C1108   1.402       .  A
C1107      H1112   1.084       .  S
C1108      C1109   1.410       .  A
C1108      C1113   1.479       .  S
C1109      C1110   1.401       .  A
C1109      N1114   1.438       .  S
C1110      H1115   1.084       .  S
N1111      H1131   1.045       .  S
N1111      H1132   1.046       .  S
C1113      C1116   1.400       .  A
C1113      C1120   1.410       .  A
N1114      H1129   1.045       .  S
N1114      H1130   1.046       .  S
C1116      C1117   1.397       .  A
C1116      H1121   1.084       .  S
C1117      C1118   1.413       .  A
C1117      N1122   1.433       .  S
C1118      C1119   1.406       .  A
C1119      C1120   1.406       .  A
C1119      H1123   1.083       .  S
C1120      N1124   1.437       .  S
N1122      H1125   1.051       .  S
N1122      H1126   1.040       .  S
N1124      H1127   1.046       .  S
N1124      H1128   1.045       .  S
C1133      C1134   1.413   1_556  A
C1133      C1138   1.404       .  A
C1134      C1135   1.407       .  A
C1134      N1139   1.437       .  S
C1135      C1136   1.401   1_554  A
C1135      H1140   1.084       .  S
C1136      C1137   1.408       .  A
C1136      C1141   1.479       .  S
C1137      C1138   1.403       .  A
C1137      N1142   1.438       .  S
C1138      H1143   1.084       .  S
N1139      H1159   1.047       .  S
N1139      H1160   1.045       .  S
C1141      C1144   1.400   1_556  A
C1141      C1148   1.407       .  A
N1142      H1157   1.046       .  S
N1142      H1158   1.046       .  S
C1144      C1145   1.402       .  A
C1144      H1149   1.084       .  S
C1145      C1146   1.416   1_554  A
C1145      N1150   1.438       .  S
C1146      C1147   1.408       .  A
C1147      C1148   1.407       .  A
C1147      H1151   1.083       .  S
C1148      N1152   1.437       .  S
N1150      H1153   1.046       .  S
N1150      H1154   1.045       .  S
N1152      H1155   1.046       .  S
N1152      H1156   1.046       .  S
C1161      C1162   1.412       .  A
C1161      C1166   1.403       .  A
C1162      C1163   1.404       .  A
C1162      N1167   1.437       .  S
C1163      C1164   1.401       .  A
C1163      H1168   1.084       .  S
C1164      C1165   1.409       .  A
C1164      C1169   1.476       .  S
C1165      C1166   1.400       .  A
C1165      N1170   1.438       .  S
C1166      H1171   1.083       .  S
N1167      H1187   1.046       .  S
N1167      H1188   1.045       .  S
C1169      C1172   1.398       .  A
C1169      C1176   1.408       .  A
N1170      H1185   1.046       .  S
N1170      H1186   1.045       .  S
C1172      C1173   1.398       .  A
C1172      H1177   1.084       .  S
C1173      C1174   1.417       .  A
C1173      N1178   1.439       .  S
C1174      C1175   1.405       .  A
C1175      C1176   1.406       .  A
C1175      H1179   1.084       .  S
C1176      N1180   1.437       .  S
N1178      H1181   1.046       .  S
N1178      H1182   1.045       .  S
N1180      H1183   1.046       .  S
N1180      H1184   1.045       .  S
C1189      C1190   1.413       .  A
C1189      C1194   1.407   1_554  A
C1190      C1191   1.403       .  A
C1190      N1195   1.437       .  S
C1191      C1192   1.401       .  A
C1191      H1196   1.084       .  S
C1192      C1193   1.408   1_554  A
C1192      C1197   1.478       .  S
C1193      C1194   1.407       .  A
C1193      N1198   1.437       .  S
C1194      H1199   1.083       .  S
N1195      H1215   1.045       .  S
N1195      H1216   1.046       .  S
C1197      C1200   1.403       .  A
C1197      C1204   1.406   1_554  A
N1198      H1213   1.046       .  S
N1198      H1214   1.045       .  S
C1200      C1201   1.411       .  A
C1200      H1205   1.084       .  S
C1201      C1202   1.415       .  A
C1201      N1206   1.437       .  S
C1202      C1203   1.404   1_554  A
C1203      C1204   1.399       .  A
C1203      H1207   1.084       .  S
C1204      N1208   1.438       .  S
N1206      H1209   1.046       .  S
N1206      H1210   1.046       .  S
N1208      H1211   1.046       .  S
N1208      H1212   1.045       .  S
C1217      C1218   1.418       .  A
C1217      C1222   1.408       .  A
C1218      C1219   1.406       .  A
C1218      N1223   1.438       .  S
C1219      C1220   1.401       .  A
C1219      H1224   1.084       .  S
C1220      C1221   1.409       .  A
C1220      C1225   1.483       .  S
C1221      C1222   1.402       .  A
C1221      N1226   1.439       .  S
C1222      H1227   1.083       .  S
N1223      H1243   1.046       .  S
N1223      H1244   1.045       .  S
C1225      C1228   1.403       .  A
C1225      C1232   1.412       .  A
N1226      H1241   1.046       .  S
N1226      H1242   1.046       .  S
C1228      C1229   1.401       .  A
C1228      H1233   1.084       .  S
C1229      C1230   1.410       .  A
C1229      N1234   1.438       .  S
C1230      C1231   1.402       .  A
C1231      C1232   1.406       .  A
C1231      H1235   1.084       .  S
C1232      N1236   1.438       .  S
N1234      H1237   1.046   1_545  S
N1234      H1238   1.045   1_545  S
N1236      H1239   1.045       .  S
N1236      H1240   1.046       .  S
C1245      C1246   1.417       .  A
C1245      C1250   1.408       .  A
C1246      C1247   1.401       .  A
C1246      N1251   1.438       .  S
C1247      C1248   1.399       .  A
C1247      H1252   1.084       .  S
C1248      C1249   1.408       .  A
C1248      C1253   1.479       .  S
C1249      C1250   1.408       .  A
C1249      N1254   1.437       .  S
C1250      H1255   1.083       .  S
N1251      H1271   1.045       .  S
N1251      H1272   1.046       .  S
C1253      C1256   1.402       .  A
C1253      C1260   1.408       .  A
N1254      H1269   1.045       .  S
N1254      H1270   1.046       .  S
C1256      C1257   1.408       .  A
C1256      H1261   1.084       .  S
C1257      C1258   1.413       .  A
C1257      N1262   1.437       .  S
C1258      C1259   1.404       .  A
C1259      C1260   1.401       .  A
C1259      H1263   1.084       .  S
C1260      N1264   1.438       .  S
N1262      H1265   1.046       .  S
N1262      H1266   1.046       .  S
N1264      H1267   1.046       .  S
N1264      H1268   1.045       .  S
C1273      C1274   1.419       .  A
C1273      C1278   1.407       .  A
C1274      C1275   1.405       .  A
C1274      N1279   1.438       .  S
C1275      C1276   1.401       .  A
C1275      H1280   1.084       .  S
C1276      C1277   1.410       .  A
C1276      C1281   1.488       .  S
C1277      C1278   1.407       .  A
C1277      N1282   1.438       .  S
C1278      H1283   1.083       .  S
N1279      H1299   1.045       .  S
N1279      H1300   1.047       .  S
C1281      C1284   1.403   1_556  A
C1281      C1288   1.412       .  A
N1282      H1297   1.046       .  S
N1282      H1298   1.046       .  S
C1284      C1285   1.406       .  A
C1284      H1289   1.084       .  S
C1285      C1286   1.412   1_554  A
C1285      N1290   1.437       .  S
C1286      C1287   1.404       .  A
C1287      C1288   1.406       .  A
C1287      H1291   1.084       .  S
C1288      N1292   1.438       .  S
N1290      H1293   1.046       .  S
N1290      H1294   1.045       .  S
N1292      H1295   1.046       .  S
N1292      H1296   1.046       .  S
C1301      C1302   1.415       .  A
C1301      C1306   1.407       .  A
C1302      C1303   1.407       .  A
C1302      N1307   1.437       .  S
C1303      C1304   1.401       .  A
C1303      H1308   1.084       .  S
C1304      C1305   1.406       .  A
C1304      C1309   1.479       .  S
C1305      C1306   1.404       .  A
C1305      N1310   1.438       .  S
C1306      H1311   1.082       .  S
N1307      H1327   1.046   1_545  S
N1307      H1328   1.046       .  S
C1309      C1312   1.402       .  A
C1309      C1316   1.406       .  A
N1310      H1325   1.045       .  S
N1310      H1326   1.046       .  S
C1312      C1313   1.408       .  A
C1312      H1317   1.084       .  S
C1313      C1314   1.415       .  A
C1313      N1318   1.437       .  S
C1314      C1315   1.407       .  A
C1315      C1316   1.403       .  A
C1315      H1319   1.083       .  S
C1316      N1320   1.438       .  S
N1318      H1321   1.046       .  S
N1318      H1322   1.046       .  S
N1320      H1323   1.046       .  S
N1320      H1324   1.045       .  S
C1329      C1330   1.410       .  A
C1329      C1334   1.404       .  A
C1330      C1331   1.399       .  A
C1330      N1335   1.433       .  S
C1331      C1332   1.401       .  A
C1331      H1336   1.084       .  S
C1332      C1333   1.412       .  A
C1332      C1337   1.483       .  S
C1333      C1334   1.408       .  A
C1333      N1338   1.437       .  S
C1334      H1339   1.083       .  S
N1335      H1355   1.045   1_545  S
N1335      H1356   1.046       .  S
C1337      C1340   1.401       .  A
C1337      C1344   1.410       .  A
N1338      H1353   1.045       .  S
N1338      H1354   1.046       .  S
C1340      C1341   1.407       .  A
C1340      H1345   1.084       .  S
C1341      C1342   1.416       .  A
C1341      N1346   1.437       .  S
C1342      C1343   1.404       .  A
C1343      C1344   1.403       .  A
C1343      H1347   1.083       .  S
C1344      N1348   1.438       .  S
N1346      H1349   1.046       .  S
N1346      H1350   1.045   1_545  S
N1348      H1351   1.046       .  S
N1348      H1352   1.046       .  S
C1357      C1358   1.412       .  A
C1357      C1362   1.406       .  A
C1358      C1359   1.402       .  A
C1358      N1363   1.438       .  S
C1359      C1360   1.401       .  A
C1359      H1364   1.084       .  S
C1360      C1361   1.407       .  A
C1360      C1365   1.476       .  S
C1361      C1362   1.404       .  A
C1361      N1366   1.438       .  S
C1362      H1367   1.083       .  S
N1363      H1383   1.045       .  S
N1363      H1384   1.046       .  S
C1365      C1368   1.402       .  A
C1365      C1372   1.406       .  A
N1366      H1381   1.046       .  S
N1366      H1382   1.045       .  S
C1368      C1369   1.406       .  A
C1368      H1373   1.084       .  S
C1369      C1370   1.413       .  A
C1369      N1374   1.437       .  S
C1370      C1371   1.405       .  A
C1371      C1372   1.401       .  A
C1371      H1375   1.083       .  S
C1372      N1376   1.438       .  S
N1374      H1377   1.045       .  S
N1374      H1378   1.046       .  S
N1376      H1379   1.046       .  S
N1376      H1380   1.045       .  S
C1385      C1386   1.412       .  A
C1385      C1390   1.405       .  A
C1386      C1387   1.404       .  A
C1386      N1391   1.438       .  S
C1387      C1388   1.401       .  A
C1387      H1392   1.084       .  S
C1388      C1389   1.406       .  A
C1388      C1393   1.473       .  S
C1389      C1390   1.404       .  A
C1389      N1394   1.438       .  S
C1390      H1395   1.083       .  S
N1391      H1411   1.046       .  S
N1391      H1412   1.045       .  S
C1393      C1396   1.401       .  A
C1393      C1400   1.405       .  A
N1394      H1409   1.045       .  S
N1394      H1410   1.046       .  S
C1396      C1397   1.408       .  A
C1396      H1401   1.084       .  S
C1397      C1398   1.414       .  A
C1397      N1402   1.437       .  S
C1398      C1399   1.405       .  A
C1399      C1400   1.399       .  A
C1399      H1403   1.083       .  S
C1400      N1404   1.438       .  S
N1402      H1405   1.047       .  S
N1402      H1406   1.045       .  S
N1404      H1407   1.046       .  S
N1404      H1408   1.046       .  S
C1413      C1414   1.413   1_554  A
C1413      C1418   1.404       .  A
C1414      C1415   1.402       .  A
C1414      N1419   1.438       .  S
C1415      C1416   1.399   1_556  A
C1415      H1420   1.084       .  S
C1416      C1417   1.408       .  A
C1416      C1421   1.475       .  S
C1417      C1418   1.407       .  A
C1417      N1422   1.437       .  S
C1418      H1423   1.083       .  S
N1419      H1439   1.046       .  S
N1419      H1440   1.046       .  S
C1421      C1424   1.402       .  A
C1421      C1428   1.405       .  A
N1422      H1437   1.047       .  S
N1422      H1438   1.045       .  S
C1424      C1425   1.407       .  A
C1424      H1429   1.084       .  S
C1425      C1426   1.413       .  A
C1425      N1430   1.437       .  S
C1426      C1427   1.406       .  A
C1427      C1428   1.402       .  A
C1427      H1431   1.083   1_554  S
C1428      N1432   1.438   1_554  S
N1430      H1433   1.046       .  S
N1430      H1434   1.045       .  S
N1432      H1435   1.045       .  S
N1432      H1436   1.046       .  S
C1441      C1442   1.412       .  A
C1441      C1446   1.405   1_554  A
C1442      C1443   1.407       .  A
C1442      N1447   1.437       .  S
C1443      C1444   1.402       .  A
C1443      H1448   1.084       .  S
C1444      C1445   1.407   1_554  A
C1444      C1449   1.477       .  S
C1445      C1446   1.401       .  A
C1445      N1450   1.438       .  S
C1446      H1451   1.083       .  S
N1447      H1467   1.046       .  S
N1447      H1468   1.045       .  S
C1449      C1452   1.400       .  A
C1449      C1456   1.406       .  A
N1450      H1465   1.046       .  S
N1450      H1466   1.046       .  S
C1452      C1453   1.403       .  A
C1452      H1457   1.084       .  S
C1453      C1454   1.414       .  A
C1453      N1458   1.437       .  S
C1454      C1455   1.408       .  A
C1455      C1456   1.405       .  A
C1455      H1459   1.083       .  S
C1456      N1460   1.438   1_554  S
N1458      H1461   1.046       .  S
N1458      H1462   1.045       .  S
N1460      H1463   1.045       .  S
N1460      H1464   1.046       .  S
C1469      C1470   1.412       .  A
C1469      C1474   1.405       .  A
C1470      C1471   1.404       .  A
C1470      N1475   1.437       .  S
C1471      C1472   1.399       .  A
C1471      H1476   1.084       .  S
C1472      C1473   1.408       .  A
C1472      C1477   1.476       .  S
C1473      C1474   1.407       .  A
C1473      N1478   1.437   1_554  S
C1474      H1479   1.083   1_554  S
N1475      H1495   1.046       .  S
N1475      H1496   1.046       .  S
C1477      C1480   1.400       .  A
C1477      C1484   1.407       .  A
N1478      H1493   1.046       .  S
N1478      H1494   1.045       .  S
C1480      C1481   1.403   1_554  A
C1480      H1485   1.084   1_554  S
C1481      C1482   1.411   1_556  A
C1481      N1486   1.437       .  S
C1482      C1483   1.406       .  A
C1483      C1484   1.407       .  A
C1483      H1487   1.084       .  S
C1484      N1488   1.437       .  S
N1486      H1489   1.045       .  S
N1486      H1490   1.046       .  S
N1488      H1491   1.046       .  S
N1488      H1492   1.045       .  S
C1497      C1498   1.415   1_554  A
C1497      C1502   1.407       .  A
C1498      C1499   1.408       .  A
C1498      N1503   1.437       .  S
C1499      C1500   1.401       .  A
C1499      H1504   1.084       .  S
C1500      C1501   1.407   1_556  A
C1500      C1505   1.480       .  S
C1501      C1502   1.404       .  A
C1501      N1506   1.438       .  S
C1502      H1507   1.083       .  S
N1503      H1523   1.046       .  S
N1503      H1524   1.045       .  S
C1505      C1508   1.401       .  A
C1505      C1512   1.406   1_556  A
N1506      H1521   1.046       .  S
N1506      H1522   1.046       .  S
C1508      C1509   1.407       .  A
C1508      H1513   1.084       .  S
C1509      C1510   1.416       .  A
C1509      N1514   1.437       .  S
C1510      C1511   1.408   1_556  A
C1511      C1512   1.404       .  A
C1511      H1515   1.082       .  S
C1512      N1516   1.438       .  S
N1514      H1517   1.046       .  S
N1514      H1518   1.046       .  S
N1516      H1519   1.045       .  S
N1516      H1520   1.046       .  S
