geometry optimzed in LAMMPS
_audit_creation_date              2020-11-30 
_audit_creation_method            'lammps2cif' 
_symmetry_space_group_name_H-M    'P1' 
_symmetry_Int_Tables_number       1 
_symmetry_cell_setting            triclinic 
loop_ 
_symmetry_equiv_pos_as_xyz 
  x,y,z 
_cell_length_a                    45.10867826 
_cell_length_b                    45.05828127757868 
_cell_length_c                    45.12065027740803 
_cell_angle_alpha                 89.62765986989558 
_cell_angle_beta                  90.62454510346312 
_cell_angle_gamma                 90.10552297266322 
loop_ 
_atom_site_label 
_atom_site_type_symbol 
_atom_site_fract_x 
_atom_site_fract_y 
_atom_site_fract_z 
_atom_site_charge 
O1          O  0.73957575  0.79596667  0.71687090    -0.88500
C2          C  0.66475564  0.74746099  0.72561643     0.87500
Mg3        Mg  0.77712529  0.77845286  0.69427632     1.58100
O4          O  0.70793790  0.75299912  0.78991261    -0.88200
O5          O  0.72864064  0.81277144  0.76088559    -0.75600
C6          C  0.79780434  0.64192782  0.74788357     0.92600
O7          O  0.71059825  0.74912745  0.67239748    -0.75400
O8          O  0.80103105  0.65729120  0.72438612    -0.82900
Mg9        Mg  0.69757068  0.79343103  0.69406973     1.58000
C10         C  0.72693279  0.68391164  0.84431733     0.92500
O11         O  0.68211141  0.83941871  0.71279745    -0.81200
H12         H  0.72901340  0.77811709  0.81985184    -0.06500
C13         C  0.71833544  0.67650000  0.74375308     0.87400
O14         O  0.79903317  0.76465386  0.73838846    -0.75700
O15         O  0.68014047  0.76957792  0.73135987    -0.88400
O16         O  0.70467355  0.69765588  0.83322246    -0.81200
C17         C  0.62869369  0.75074181  0.80351545     0.92600
C18         C  0.66763614  0.84919518  0.73499103     0.92500
Mg19       Mg  0.76588521  0.69733458  0.78674152     1.58000
O20         O  0.78313519  0.65133819  0.77003923    -0.81200
O21         O  0.75227150  0.74191810  0.80721436    -0.75400
O22         O  0.63837418  0.77328804  0.78926740    -0.81200
O23         O  0.71534605  0.81628225  0.65245078    -0.83000
O24         O  0.82295333  0.71554770  0.69097631    -0.81300
C25         C  0.72938610  0.75836493  0.80638464     0.86900
O26         O  0.78252522  0.72003089  0.74887559    -0.88400
O27         O  0.72396394  0.69331854  0.76463090    -0.88500
O28         O  0.73395874  0.67624596  0.72050636    -0.75600
Mg29       Mg  0.68438274  0.79087569  0.77357768     1.58000
O30         O  0.64485377  0.72803761  0.80762624    -0.83000
H31         H  0.76464082  0.82614631  0.73770004    -0.06700
O32         O  0.75435926  0.73668451  0.69031926    -0.88200
H33         H  0.73330067  0.71263619  0.65948437    -0.06500
H34         H  0.81313193  0.74042679  0.77385017    -0.06700
C35         C  0.73308692  0.73209646  0.67336760     0.86900
C36         C  0.74499499  0.81238019  0.73812977     0.87500
C37         C  0.79905317  0.74129836  0.75431967     0.87500
H38         H  0.69895237  0.66241198  0.74486550    -0.06700
O39         O  0.66520395  0.72412417  0.74172139    -0.75700
Mg40       Mg  0.77770368  0.69831266  0.70702018     1.58000
H41         H  0.65125857  0.74760499  0.70567093    -0.06700
C42         C  0.73867096  0.81041914  0.63789449     0.92500
O43         O  0.81793382  0.76086574  0.67161833    -0.82900
C44         C  0.83303352  0.73745816  0.67621694     0.92500
O45         O  0.66210678  0.83245306  0.75697471    -0.82900
Mg46       Mg  0.68633941  0.71100884  0.78662837     1.58200
O47         O  0.75981722  0.79512625  0.64898848    -0.81200
O48         O  0.74881377  0.67592639  0.82864089    -0.82900
C49         C  0.64363587  0.02883103  0.74934398     0.86300
C50         C  0.62578263  0.02211873  0.77783917    -0.53900
C51         C  0.60616759  0.99919717  0.77560965     0.09200
C52         C  0.60591381  0.98455519  0.74483312     0.20200
C53         C  0.65816156  0.99841780  0.74286526    -0.54600
C54         C  0.63837556  0.97535523  0.74004356     0.09300
C55         C  0.61966005  0.03283609  0.72527660    -0.54200
C56         C  0.60040595  0.00967164  0.72200513     0.09900
H57         H  0.62950805  0.03173478  0.79921271     0.14400
H58         H  0.59000423  0.96580412  0.74301064     0.00200
H59         H  0.68185482  0.99488443  0.74327898     0.14700
H60         H  0.61987710  0.05153159  0.70998162     0.14500
O61         O  0.80636849  0.28392500  0.73101916    -0.88500
C62         C  0.75688297  0.26879564  0.80328338     0.87500
Mg63       Mg  0.78887198  0.30340075  0.69192084     1.58100
O64         O  0.77108375  0.20472202  0.76164497    -0.88200
O65         O  0.82798186  0.24187012  0.74289375    -0.75600
C66         C  0.65766329  0.23566662  0.67046122     0.92600
O67         O  0.75132794  0.32069093  0.75484005    -0.75400
O68         O  0.67177364  0.25858688  0.66156660    -0.82900
Mg69       Mg  0.79732370  0.30589129  0.77156957     1.58000
C70         C  0.70286509  0.14501469  0.74441262     0.92500
O71         O  0.84414387  0.29490008  0.79010405    -0.81200
H72         H  0.79944944  0.17613717  0.74359901    -0.06500
C73         C  0.69147601  0.24424583  0.74620684     0.87400
O74         O  0.78203809  0.25679938  0.67188939    -0.75700
O75         O  0.77902238  0.26565413  0.78770904    -0.88400
O76         O  0.71684177  0.15726194  0.76581332    -0.81200
C77         C  0.76771026  0.19427551  0.84097051     0.92600
C78         C  0.85637818  0.27438390  0.80550080     0.92500
Mg79       Mg  0.71732564  0.20161212  0.70215019     1.58000
O80         O  0.67023885  0.21537742  0.68589239    -0.81200
O81         O  0.76309055  0.18464450  0.71801384    -0.75400
O82         O  0.78823383  0.21042389  0.83039763    -0.81200
O83         O  0.81411915  0.34999130  0.75516133    -0.83000
O84         O  0.73138033  0.29630783  0.63954837    -0.81300
C85         C  0.77863954  0.18786605  0.74150609     0.86900
O86         O  0.73768347  0.24098926  0.68461493    -0.88400
O87         O  0.71051009  0.22483235  0.74274064    -0.88500
O88         O  0.68901904  0.26638229  0.72867990    -0.75600
Mg89       Mg  0.80596739  0.22671843  0.78587844     1.58000
O90         O  0.74594736  0.18536136  0.82513567    -0.83000
H91         H  0.84040776  0.26773068  0.70822375    -0.06700
O92         O  0.74548632  0.30221840  0.71020184    -0.88200
H93         H  0.71545143  0.32879408  0.72854160    -0.06500
H94         H  0.76427278  0.21767839  0.65833058    -0.06700
C95         C  0.73670400  0.31790958  0.73075362     0.86900
C96         C  0.82575508  0.26504795  0.72685736     0.87500
C97         C  0.76112557  0.23775264  0.67089938     0.87500
H98         H  0.67699213  0.24272641  0.76509161    -0.06700
O99         O  0.73566963  0.25025516  0.80293130    -0.75700
Mg100      Mg  0.71136093  0.28053653  0.68502281     1.58000
H101        H  0.75503575  0.28846374  0.81672974    -0.06700
C102        C  0.80764250  0.36448754  0.73173571     0.92500
O103        O  0.77265255  0.32188517  0.64902779    -0.82900
C104        C  0.75266675  0.31317462  0.63115409     0.92500
O105        O  0.84392572  0.24942127  0.81012795    -0.82900
Mg106      Mg  0.72814404  0.20462839  0.78203853     1.58200
O107        O  0.79693723  0.35175017  0.70875840    -0.81200
O108        O  0.69767130  0.15877392  0.72018197    -0.82900
C109        C  0.89799264  0.49717377  0.77888710     0.86300
C110        C  0.87744784  0.47193926  0.76932469    -0.53900
C111        C  0.86068953  0.47732901  0.74454091     0.09200
C112        C  0.86720295  0.50799969  0.73038500     0.20200
C113        C  0.91719634  0.50300010  0.75097119    -0.54600
C114        C  0.90108212  0.50773182  0.72525111     0.09300
C115        C  0.87890068  0.52515462  0.78019454    -0.54200
C116        C  0.86317494  0.53134465  0.75506049     0.09900
H117        H  0.87585812  0.45130312  0.78184011     0.14400
H118        H  0.85357345  0.51293519  0.71043126     0.00200
H119        H  0.94096250  0.50505539  0.75143454     0.14700
H120        H  0.87807774  0.53915886  0.79965256     0.14500
C121        C  0.74887609  0.86077268  0.46313344     0.86300
C122        C  0.77663938  0.87888230  0.46989635    -0.53900
C123        C  0.77620804  0.89374871  0.49584259     0.09200
C124        C  0.74732435  0.88901882  0.51366857     0.20200
C125        C  0.74663952  0.83996327  0.49066515    -0.54600
C126        C  0.74538267  0.85489259  0.51720299     0.09300
C127        C  0.72232193  0.88121601  0.46674694    -0.54200
C128        C  0.72070061  0.89670335  0.49270188     0.09900
H129        H  0.79625346  0.87830327  0.45625161     0.14400
H130        H  0.74809387  0.90100897  0.53485404     0.00200
H131        H  0.74800325  0.81605096  0.48991578     0.14700
H132        H  0.70490757  0.88157868  0.44993135     0.14500
O133        O  0.69454713  0.72969950  0.23073553    -0.88500
C134        C  0.74447359  0.73875244  0.30469388     0.87500
Mg135      Mg  0.71126896  0.70717460  0.19292430     1.58100
O136        O  0.73606053  0.80376696  0.26244038    -0.88200
O137        O  0.67645982  0.77308058  0.24278447    -0.75600
C138        C  0.84674977  0.76265627  0.17446026     0.92600
O139        O  0.74327909  0.68575705  0.25833425    -0.75400
O140        O  0.83144095  0.73968260  0.16833857    -0.82900
Mg141      Mg  0.69897340  0.70664573  0.27203550     1.58000
C142        C  0.80600470  0.85833399  0.24412562     0.92500
O143        O  0.65317858  0.72354019  0.28817081    -0.81200
H144        H  0.70965009  0.83320113  0.24193273    -0.06500
C145        C  0.81249176  0.75827690  0.25065157     0.87400
O146        O  0.72314584  0.75171664  0.17091513    -0.75700
O147        O  0.72228629  0.74409696  0.28917838    -0.88400
O148        O  0.79215003  0.84711420  0.26597890    -0.81200
C149        C  0.74153764  0.81469680  0.34190240     0.92600
C150        C  0.64381093  0.74465966  0.30425746     0.92500
Mg151      Mg  0.79014565  0.80130622  0.20398868     1.58000
O152        O  0.83620243  0.78441482  0.18891219    -0.81200
O153        O  0.74543411  0.82127033  0.21789036    -0.75400
O154        O  0.71941718  0.79977208  0.33231816    -0.81200
O155        O  0.67645833  0.66555962  0.25444070    -0.83000
O156        O  0.77189615  0.70554545  0.14589462    -0.81300
C157        C  0.72969182  0.82012755  0.24112696     0.86900
O158        O  0.76781887  0.76317711  0.18697437    -0.88400
O159        O  0.79497046  0.77879119  0.24544997    -0.88500
O160        O  0.81319089  0.73517352  0.23469550    -0.75600
Mg161      Mg  0.69969158  0.78562631  0.28670133     1.58000
O162        O  0.76299483  0.82182509  0.32526599    -0.83000
H163        H  0.66282832  0.74981757  0.20671296    -0.06700
O164        O  0.75360473  0.70422521  0.21454617    -0.88200
H165        H  0.77915365  0.67367982  0.23449406    -0.06500
H166        H  0.74612493  0.78779108  0.15678819    -0.06700
C167        C  0.75940598  0.68718559  0.23542536     0.86900
C168        C  0.67720707  0.75050634  0.22602142     0.87500
C169        C  0.74605996  0.76820447  0.17075225     0.87500
H170        H  0.82688686  0.75958927  0.26991282    -0.06700
O171        O  0.76719339  0.75551873  0.30458586    -0.75700
Mg172      Mg  0.79060801  0.72166225  0.19100445     1.58000
H173        H  0.74489631  0.71876283  0.31807115    -0.06700
C174        C  0.68346219  0.65018369  0.23205142     0.92500
O175        O  0.72746170  0.68490149  0.15192627    -0.82900
C176        C  0.74992482  0.69042556  0.13616376     0.92500
O177        O  0.65975497  0.76718870  0.31031901    -0.82900
Mg178      Mg  0.77866578  0.80065408  0.28340874     1.58200
O179        O  0.69803937  0.66101094  0.21055627    -0.81200
O180        O  0.81175577  0.84334066  0.22108161    -0.82900
C181        C  0.78647270  0.61286611  0.98631418     0.86300
C182        C  0.78704050  0.63419108  0.01271510    -0.53900
C183        C  0.76155401  0.64987207  0.01629971     0.09200
C184        C  0.73815830  0.64452635  0.99174069     0.20200
C185        C  0.75794115  0.59437798  0.98965645    -0.54600
C186        C  0.73265790  0.61082834  0.99226826     0.09300
C187        C  0.77990092  0.63383011  0.95996317    -0.54200
C188        C  0.75471069  0.65019529  0.96255660     0.09900
H189        H  0.80512251  0.63524666  0.02871716     0.14400
H190        H  0.71771720  0.65798354  0.99407866     0.00200
H191        H  0.75809838  0.57035217  0.99077227     0.14700
H192        H  0.79355309  0.63599296  0.94047930     0.14500
C193        C  0.52822075  0.74439799  0.36321216     0.86300
C194        C  0.52280359  0.71559324  0.38004128    -0.53900
C195        C  0.49776656  0.71465473  0.39650923     0.09200
C196        C  0.47928277  0.74390586  0.39424090     0.20200
C197        C  0.49915427  0.74849172  0.34439000    -0.54600
C198        C  0.47335650  0.74789261  0.36052242     0.09300
C199        C  0.52609200  0.76935275  0.38572813    -0.54200
C200        C  0.50106661  0.76962026  0.40225885     0.09900
H201        H  0.53742543  0.69655587  0.37806259     0.14400
H202        H  0.45891496  0.74424259  0.40771182     0.00200
H203        H  0.49841833  0.75262259  0.32074215     0.14700
H204        H  0.54110873  0.78819142  0.38532184     0.14500
C205        C  0.13588034  0.97257191  0.76692307     0.86300
C206        C  0.10904230  0.97560801  0.74633688    -0.53900
C207        C  0.09484324  0.00213343  0.74714297     0.09200
C208        C  0.10840564  0.02365007  0.77020464     0.20200
C209        C  0.15578591  0.00005425  0.76011268    -0.54600
C210        C  0.14117460  0.02692115  0.76140277     0.09300
C211        C  0.12431622  0.98005043  0.79795583    -0.54200
C212        C  0.11047121  0.00665965  0.80009274     0.09900
H213        H  0.10367904  0.95885622  0.72989176     0.14400
H214        H  0.09633885  0.04505324  0.77163708     0.00200
H215        H  0.17962571  0.99889175  0.75925105     0.14700
H216        H  0.12938764  0.96703650  0.81767509     0.14500
C217        C  0.75863150  0.15027913  0.96104125     0.86300
C218        C  0.73058536  0.13124000  0.95846729    -0.53900
C219        C  0.72519021  0.11334413  0.98221655     0.09200
C220        C  0.75010376  0.11459511  0.00646444     0.20200
C221        C  0.75639368  0.16606137  0.99125918    -0.54600
C222        C  0.75162300  0.14758618  0.01531265     0.09300
C223        C  0.78330109  0.12709031  0.96631353    -0.54200
C224        C  0.77972111  0.10921877  0.99036596     0.09900
H225        H  0.71562698  0.13208169  0.93950489     0.14400
H226        H  0.74707386  0.09882764  0.02495226     0.00200
H227        H  0.75925862  0.18986933  0.99339104     0.14700
H228        H  0.80352097  0.12561613  0.95374776     0.14500
C229        C  0.35822871  0.53062984  0.74958633     0.86300
C230        C  0.38272997  0.52531376  0.72724809    -0.53900
C231        C  0.39942321  0.50070447  0.73221649     0.09200
C232        C  0.39010178  0.48324362  0.76040819     0.20200
C233        C  0.34040327  0.50081459  0.74848648    -0.54600
C234        C  0.35690607  0.47574326  0.75498083     0.09300
C235        C  0.37269181  0.52994318  0.78042222    -0.54200
C236        C  0.38968915  0.50574022  0.78615800     0.09900
H237        H  0.38475192  0.53862076  0.70716531     0.14400
H238        H  0.40471177  0.46411233  0.76562251     0.00200
H239        H  0.31745712  0.49934297  0.74211443     0.14700
H240        H  0.36980793  0.54750071  0.79654226     0.14500
C241        C  0.72022334  0.38829119  0.48550550     0.86300
C242        C  0.72321741  0.36274079  0.50755951    -0.53900
C243        C  0.75040350  0.34996878  0.50916763     0.09200
C244        C  0.77267068  0.36383579  0.48701233     0.20200
C245        C  0.74580098  0.40951919  0.49548014    -0.54600
C246        C  0.77369186  0.39719311  0.49512711     0.09300
C247        C  0.73027043  0.37656382  0.45563491    -0.54200
C248        C  0.75726069  0.36329443  0.45628455     0.09900
H249        H  0.70615729  0.35800098  0.52379941     0.14400
H250        H  0.79434709  0.35228171  0.48674195     0.00200
H251        H  0.74220394  0.43132827  0.50414908     0.14700
H252        H  0.71675398  0.37804947  0.43558967     0.14500
C253        C  0.61115256  0.50155583  0.28440319     0.86300
C254        C  0.62579124  0.53160917  0.27722082    -0.53900
C255        C  0.64262658  0.53208340  0.25257285     0.09200
C256        C  0.64477851  0.50168000  0.23740791     0.20200
C257        C  0.59433326  0.49478786  0.25492453    -0.54600
C258        C  0.61225170  0.49420759  0.23037966     0.09300
C259        C  0.63670758  0.47920574  0.28570193    -0.54200
C260        C  0.65412265  0.47866064  0.26116128     0.09900
H261        H  0.62043641  0.55218091  0.28821330     0.14400
H262        H  0.65936762  0.50188827  0.21772327     0.00200
H263        H  0.57048240  0.49464642  0.25297670     0.14700
H264        H  0.63887466  0.46297655  0.30349404     0.14500
C265        C  0.27924306  0.61143022  0.50450341     0.86300
C266        C  0.27386196  0.63686068  0.52586844    -0.53900
C267        C  0.24913690  0.65321515  0.52017745     0.09200
C268        C  0.23111907  0.64209134  0.49316062     0.20200
C269        C  0.25000099  0.59287515  0.50602038    -0.54600
C270        C  0.22471591  0.60920859  0.50028623     0.09300
C271        C  0.27780657  0.62452842  0.47330281    -0.54200
C272        C  0.25304503  0.64060076  0.46714080     0.09900
H273        H  0.28775408  0.64034823  0.54538560     0.14400
H274        H  0.21097750  0.65548506  0.48828955     0.00200
H275        H  0.24905557  0.56911768  0.50909520     0.14700
H276        H  0.29529311  0.62145870  0.45723466     0.14500
C277        C  0.99721498  0.73239066  0.09720908     0.86300
C278        C  0.97146212  0.72961228  0.11881667    -0.53900
C279        C  0.96902983  0.75189590  0.13887614     0.09200
C280        C  0.99540776  0.77408177  0.13751379     0.20200
C281        C  0.99582718  0.76431222  0.08451428    -0.54600
C282        C  0.99428585  0.78629283  0.10542986     0.09300
C283        C  0.02426531  0.73293059  0.11814802    -0.54200
C284        C  0.02388620  0.75461592  0.13896640     0.09900
H285        H  0.95452167  0.71260779  0.11679035     0.14400
H286        H  0.99543682  0.79136850  0.15474193     0.00200
H287        H  0.99676534  0.76908611  0.06092476     0.14700
H288        H  0.04229529  0.71710217  0.11783133     0.14500
O289        O  0.21581204  0.72580072  0.28403184    -0.88500
C290        C  0.30329479  0.72043922  0.26449249     0.87500
Mg291      Mg  0.18099406  0.72484713  0.25212110     1.58100
O292        O  0.28025429  0.79194564  0.28370013    -0.88200
O293        O  0.23148295  0.75622243  0.31872296    -0.75600
C294        C  0.22520543  0.81746577  0.14526533     0.92600
O295        O  0.24644126  0.69190648  0.23053538    -0.75400
O296        O  0.20709981  0.79635540  0.15000568    -0.82900
Mg297      Mg  0.24881010  0.69189712  0.28139158     1.58000
C298        C  0.30340324  0.86527431  0.23535875     0.92500
O299        O  0.25069545  0.68828643  0.33189446    -0.81200
H300        H  0.26157286  0.81985758  0.31224354    -0.06500
C301        C  0.28227595  0.77505901  0.19484523     0.87400
O302        O  0.17866262  0.77598033  0.25281597    -0.75700
O303        O  0.28213617  0.72554701  0.28090285    -0.88400
O304        O  0.31508680  0.84322439  0.24910547    -0.81200
C305        C  0.35591558  0.77315460  0.30714732     0.92600
C306        C  0.26394015  0.69912906  0.35443197     0.92500
Mg307      Mg  0.24571762  0.82542028  0.21837365     1.58000
O308        O  0.24170862  0.82773581  0.16619748    -0.81200
O309        O  0.24904842  0.82681932  0.26941363    -0.75400
O310        O  0.33399065  0.75899958  0.31830090    -0.81200
O311        O  0.21511500  0.65443966  0.28023243    -0.83000
O312        O  0.15791859  0.75881151  0.18676797    -0.81300
C313        C  0.26393868  0.81321048  0.28941073     0.86900
O314        O  0.21153252  0.79232431  0.22103131    -0.88400
O315        O  0.27846664  0.79080821  0.21689228    -0.88500
O316        O  0.26080869  0.76212099  0.18157157    -0.75600
Mg317      Mg  0.28222398  0.75727105  0.31630638     1.58000
O318        O  0.35207301  0.79028096  0.28475104    -0.83000
H319        H  0.18836219  0.74473737  0.31276230    -0.06700
O320        O  0.21360426  0.72581655  0.21784813    -0.88200
H321        H  0.23319113  0.69985663  0.18812185    -0.06500
H322        H  0.18478474  0.81959578  0.24304223    -0.06700
C323        C  0.23071155  0.70548225  0.21121898     0.86900
C324        C  0.21096360  0.74187721  0.30559934     0.87500
C325        C  0.19132016  0.79696694  0.23876256     0.87500
H326        H  0.30455608  0.77177286  0.18692830    -0.06700
O327        O  0.31636784  0.74098502  0.25029094    -0.75700
Mg328      Mg  0.20964255  0.76071265  0.18590410     1.58000
H329        H  0.31016128  0.69771694  0.26131248    -0.06700
C330        C  0.19174086  0.65137713  0.26454247     0.92500
O331        O  0.14246304  0.72603598  0.22011676    -0.82900
C332        C  0.13710539  0.74372336  0.19875412     0.92500
O333        O  0.28117295  0.72149807  0.35240983    -0.82900
Mg334      Mg  0.31359425  0.79180207  0.25017011     1.58200
O335        O  0.17905527  0.67331937  0.25170599    -0.81200
O336        O  0.28077675  0.86214160  0.21847170    -0.82900
C337        C  0.24614221  0.86312946  0.96920596     0.86300
C338        C  0.27700954  0.87702536  0.97226900    -0.53900
C339        C  0.28251247  0.89137302  0.99822146     0.09200
C340        C  0.25513080  0.89238169  0.01873871     0.20200
C341        C  0.24268887  0.84407927  0.99828940    -0.54600
C342        C  0.24761208  0.85949957  0.02422248     0.09300
C343        C  0.22427784  0.88844903  0.97424726    -0.54200
C344        C  0.22886541  0.90425559  0.99955857     0.09900
H345        H  0.29371114  0.87481476  0.95525278     0.14400
H346        H  0.25857154  0.90503352  0.03952660     0.00200
H347        H  0.23554681  0.82114642  0.99898995     0.14700
H348        H  0.20464471  0.89162555  0.96055204     0.14500
C349        C  0.47475482  0.23732506  0.64933518     0.86300
C350        C  0.47820066  0.21326436  0.62663615    -0.53900
C351        C  0.50190299  0.21630217  0.60860533     0.09200
C352        C  0.52171409  0.24364370  0.61616915     0.20200
C353        C  0.50524434  0.23567077  0.66677507    -0.54600
C354        C  0.52994940  0.23904748  0.64894974     0.09300
C355        C  0.47595463  0.26631704  0.63215984    -0.54200
C356        C  0.50110658  0.27114150  0.61695206     0.09900
H357        H  0.46579649  0.19268684  0.62790077     0.14400
H358        H  0.54122597  0.24626569  0.60158365     0.00200
H359        H  0.50729951  0.23049468  0.69017509     0.14700
H360        H  0.45879885  0.28308862  0.63399056     0.14500
O361        O  0.25317784  0.30001958  0.79367004    -0.88500
C362        C  0.32596293  0.24885934  0.78589549     0.87500
Mg363      Mg  0.21506046  0.28544395  0.81765040     1.58100
O364        O  0.28241821  0.25483153  0.72196601    -0.88200
O365        O  0.26470059  0.31576468  0.74915086    -0.75600
C366        C  0.18881383  0.14808717  0.76647828     0.92600
O367        O  0.28006381  0.25268968  0.83829022    -0.75400
O368        O  0.18474325  0.16453628  0.78892857    -0.82900
Mg369      Mg  0.29513627  0.29629387  0.81535298     1.58000
C370        C  0.26124460  0.18616350  0.66940606     0.92500
O371        O  0.31109422  0.34186224  0.79442242    -0.81200
H372        H  0.26316849  0.28063575  0.69114157    -0.06500
C373        C  0.26794724  0.18036338  0.77080591     0.87400
O374        O  0.19224127  0.27232706  0.77369091    -0.75700
O375        O  0.31125676  0.27118133  0.77922714    -0.88400
O376        O  0.28344571  0.19860572  0.68169132    -0.81200
C377        C  0.36075569  0.24803638  0.70838362     0.92600
C378        C  0.32605516  0.35038329  0.77188432     0.92500
Mg379      Mg  0.22192918  0.20263241  0.72616712     1.58000
O380        O  0.20364983  0.15761106  0.74433160    -0.81200
O381        O  0.23760292  0.24611594  0.70458586    -0.75400
O382        O  0.35267747  0.27142286  0.72183466    -0.81200
O383        O  0.27956160  0.32014641  0.85596431    -0.83000
O384        O  0.16446823  0.22661465  0.82054205    -0.81300
C385        C  0.26148050  0.26114295  0.70512172     0.86900
O386        O  0.20641146  0.22686194  0.76361146    -0.88400
O387        O  0.26338370  0.19707060  0.74936143    -0.88500
O388        O  0.25201659  0.18110750  0.79384717    -0.75600
Mg389      Mg  0.30785171  0.29172072  0.73668138     1.58000
O390        O  0.34357198  0.22600261  0.70480232    -0.83000
H391        H  0.22938521  0.33088859  0.77209051    -0.06700
O392        O  0.23481185  0.24246842  0.82238489    -0.88200
H393        H  0.25586951  0.21749396  0.85276385    -0.06500
H394        H  0.17711172  0.24894964  0.73830582    -0.06700
C395        C  0.25657583  0.23685667  0.83851245     0.86900
C396        C  0.24838599  0.31630596  0.77195853     0.87500
C397        C  0.19114918  0.24904344  0.75787588     0.87500
H398        H  0.28668112  0.16544789  0.77035617    -0.06700
O399        O  0.32424875  0.22494581  0.77111523    -0.75700
Mg400      Mg  0.20924149  0.20545904  0.80603120     1.58000
H401        H  0.33981084  0.24933960  0.80559434    -0.06700
C402        C  0.25802394  0.31415212  0.87302252     0.92500
O403        O  0.17220515  0.27138718  0.84006719    -0.82900
C404        C  0.15516770  0.24957487  0.83408782     0.92500
O405        O  0.33235013  0.33256829  0.75121924    -0.82900
Mg406      Mg  0.30191106  0.21198237  0.72705217     1.58200
O407        O  0.23525966  0.30017751  0.86333022    -0.81200
O408        O  0.23788742  0.17999091  0.68394380    -0.82900
C409        C  0.97562287  0.26963479  0.85665814     0.86300
C410        C  0.98085052  0.29304912  0.88072896    -0.53900
C411        C  0.00348381  0.28705219  0.90006261     0.09200
C412        C  0.02000432  0.25812891  0.89328428     0.20200
C413        C  0.00651552  0.26725187  0.84158524    -0.54600
C414        C  0.02975436  0.26202707  0.86097552     0.09300
C415        C  0.97308664  0.24007815  0.87361324    -0.54200
C416        C  0.99620578  0.23354227  0.89200751     0.09900
H417        H  0.96812084  0.31346475  0.88170704     0.14400
H418        H  0.03850175  0.25336574  0.90904638     0.00200
H419        H  0.01067179  0.26820132  0.81836756     0.14700
H420        H  0.95415802  0.22533867  0.87117335     0.14500
O421        O  0.75887870  0.20655760  0.21465062    -0.88500
C422        C  0.83523992  0.25211914  0.22457051     0.87500
Mg423      Mg  0.72131313  0.22392381  0.19142920     1.58100
O424        O  0.79173238  0.24709349  0.28795392    -0.88200
O425        O  0.76998569  0.18806000  0.25845490    -0.75600
C426        C  0.70526720  0.36179103  0.24323446     0.92600
O427        O  0.78844183  0.25353400  0.17106466    -0.75400
O428        O  0.70014325  0.34645912  0.22015064    -0.82900
Mg429      Mg  0.80054431  0.20861584  0.19267318     1.58000
C430        C  0.77525029  0.31832889  0.34013654     0.92500
O431        O  0.81280596  0.16228468  0.21133608    -0.81200
H432        H  0.76972049  0.22236939  0.31740454    -0.06500
C433        C  0.78230486  0.32393148  0.23976648     0.87400
O434        O  0.70036889  0.23775697  0.23530956    -0.75700
O435        O  0.81897170  0.23071157  0.23024382    -0.88400
O436        O  0.79662708  0.30353781  0.32951343    -0.81200
C437        C  0.87041528  0.24916768  0.30366071     0.92600
C438        C  0.82681469  0.15074578  0.23321801     0.92500
Mg439      Mg  0.73493780  0.30436058  0.28290605     1.58000
O440        O  0.71955375  0.35060162  0.26525476    -0.81200
O441        O  0.74760067  0.25934464  0.30399180    -0.75400
O442        O  0.86130946  0.22615164  0.28963851    -0.81200
O443        O  0.78286747  0.18699041  0.15108475    -0.83000
O444        O  0.67554045  0.28641892  0.18900368    -0.81300
C445        C  0.77000376  0.24222170  0.30382575     0.86900
O446        O  0.71750104  0.28219569  0.24534571    -0.88400
O447        O  0.77645758  0.30705486  0.26066650    -0.88500
O448        O  0.76626060  0.32506856  0.21645521    -0.75600
Mg449      Mg  0.81476203  0.20874445  0.27228635     1.58000
O450        O  0.85392348  0.27160679  0.30628758    -0.83000
H451        H  0.73350157  0.17614408  0.23460418    -0.06700
O452        O  0.74408169  0.26561070  0.18693201    -0.88200
H453        H  0.76594359  0.29012246  0.15717714    -0.06500
H454        H  0.68711487  0.26208094  0.27040968    -0.06700
C455        C  0.76580654  0.27041290  0.17096636     0.86900
C456        C  0.75338553  0.18955098  0.23553563     0.87500
C457        C  0.70085476  0.26109161  0.25095979     0.87500
H458        H  0.80218095  0.33732964  0.24095079    -0.06700
O459        O  0.83512913  0.27562912  0.23999948    -0.75700
Mg460      Mg  0.72162130  0.30408565  0.20341116     1.58000
H461        H  0.84907835  0.25126503  0.20518259    -0.06700
C462        C  0.75981984  0.19288366  0.13574447     0.92500
O463        O  0.67982290  0.24132894  0.16917446    -0.82900
C464        C  0.66460772  0.26413423  0.17543307     0.92500
O465        O  0.83563757  0.16598226  0.25539211    -0.82900
Mg466      Mg  0.81365401  0.28894281  0.28382788     1.58200
O467        O  0.73810406  0.20746992  0.14612535    -0.81200
O468        O  0.75273589  0.32581805  0.32463059    -0.82900
C469        C  0.88524850  0.00858491  0.29315214     0.86300
C470        C  0.87153838  0.97784396  0.28855454    -0.53900
C471        C  0.85821978  0.97410888  0.26170682     0.09200
C472        C  0.86059424  0.00133042  0.24105233     0.20200
C473        C  0.90710224  0.01159962  0.26646274    -0.54600
C474        C  0.89426480  0.00716697  0.23886280     0.09300
C475        C  0.86129751  0.03123861  0.28539752    -0.54200
C476        C  0.84872728  0.02846700  0.25807348     0.09900
H477        H  0.87216304  0.96042207  0.30531449     0.14400
H478        H  0.84854675  0.99724953  0.21993158     0.00200
H479        H  0.92989906  0.01777358  0.26884527     0.14700
H480        H  0.85785778  0.05080656  0.29893818     0.14500
C481        C  0.04419093  0.26016100  0.35898313     0.86300
C482        C  0.04118757  0.23698757  0.38391798    -0.53900
C483        C  0.01417639  0.23608549  0.39789938     0.09200
C484        C  0.99309218  0.26080894  0.38594565     0.20200
C485        C  0.01735768  0.25490225  0.33829622    -0.54600
C486        C  0.99060988  0.25480746  0.35231817     0.09300
C487        C  0.03731044  0.28935098  0.37510131    -0.54200
C488        C  0.01030429  0.29043190  0.38793544     0.09900
H489        H  0.05896966  0.22184686  0.38943040     0.14400
H490        H  0.97156395  0.26255716  0.39695777     0.00200
H491        H  0.01948343  0.25338980  0.31446850     0.14700
H492        H  0.05203761  0.30842441  0.37567151     0.14500
O493        O  0.30606074  0.22303667  0.23254861    -0.88500
C494        C  0.30955331  0.24633841  0.31928112     0.87500
Mg495      Mg  0.30869744  0.25533842  0.19768994     1.58100
O496        O  0.23895580  0.22593594  0.29411220    -0.88200
O497        O  0.27575580  0.18852557  0.24883695    -0.75600
C498        C  0.21446746  0.36208396  0.23782294     0.92600
O499        O  0.34305589  0.27516858  0.26317931    -0.75400
O500        O  0.23856004  0.35859549  0.22380181    -0.82900
Mg501      Mg  0.33977763  0.22409253  0.26612167     1.58000
C502        C  0.16406612  0.27387078  0.31182962     0.92500
O503        O  0.33869034  0.17208943  0.26839610    -0.81200
H504        H  0.21263355  0.19612534  0.27434502    -0.06500
C505        C  0.25523316  0.31437018  0.29744061     0.87400
O506        O  0.25798897  0.25569777  0.19326273    -0.75700
O507        O  0.30564186  0.22796548  0.29925871    -0.88400
O508        O  0.18506448  0.26028080  0.32550156    -0.81200
C509        C  0.25288101  0.20625289  0.37080999     0.92600
C510        C  0.32718698  0.15169553  0.28449526     0.92500
Mg511      Mg  0.20682343  0.28941267  0.25708816     1.58000
O512        O  0.20285488  0.34053317  0.25216094    -0.81200
O513        O  0.20565770  0.23851870  0.26058390    -0.75400
O514        O  0.26887058  0.19377368  0.35128526    -0.81200
O515        O  0.37750887  0.22284212  0.23198590    -0.83000
O516        O  0.27695124  0.32095482  0.17729054    -0.81300
C517        C  0.21872104  0.21921705  0.27667061     0.86900
O518        O  0.24179495  0.28710199  0.22628426    -0.88400
O519        O  0.23932632  0.29265289  0.29185815    -0.88500
O520        O  0.27091079  0.32688846  0.27773619    -0.75600
Mg521      Mg  0.27296068  0.19340954  0.29974765     1.58000
O522        O  0.23636062  0.22829865  0.36472668    -0.83000
H523        H  0.28719113  0.19319699  0.20563722    -0.06700
O524        O  0.30829768  0.28913039  0.23152966    -0.88200
H525        H  0.33649330  0.31794974  0.25026538    -0.06500
H526        H  0.21467958  0.26667363  0.19759602    -0.06700
C527        C  0.32959968  0.29507232  0.24805130     0.86900
C528        C  0.28987647  0.20126581  0.22802134     0.87500
C529        C  0.23719834  0.27012305  0.20527911     0.87500
H530        H  0.25677934  0.32214225  0.32002417    -0.06700
O531        O  0.28817966  0.26063556  0.33068066    -0.75700
Mg532      Mg  0.27398883  0.32207275  0.22737247     1.58000
H533        H  0.33191305  0.25091955  0.32682604    -0.06700
C534        C  0.38165629  0.23921789  0.20914646     0.92500
O535        O  0.30866258  0.28854822  0.15895342    -0.82900
C536        C  0.29055326  0.30994799  0.15535838     0.92500
O537        O  0.30771926  0.15730329  0.30382587    -0.82900
Mg538      Mg  0.23699177  0.26044892  0.32637115     1.58200
O539        O  0.36023612  0.25358189  0.19718381    -0.81200
O540        O  0.16884640  0.28951538  0.28885242    -0.82900
C541        C  0.22999246  0.40297400  0.01432096     0.86300
C542        C  0.23034992  0.38025395  0.03962919    -0.53900
C543        C  0.25580887  0.36474236  0.04305996     0.09200
C544        C  0.27828217  0.37090011  0.01806949     0.20200
C545        C  0.25905156  0.42139787  0.01907711    -0.54600
C546        C  0.28442080  0.40443024  0.02119171     0.09300
C547        C  0.23673422  0.38596860  0.98636335    -0.54200
C548        C  0.26089471  0.36818737  0.98816995     0.09900
H549        H  0.21204772  0.37791157  0.05478389     0.14400
H550        H  0.29832801  0.35673108  0.01897323     0.00200
H551        H  0.26036498  0.44537782  0.01923548     0.14700
H552        H  0.22399158  0.38832200  0.96604196     0.14500
C553        C  0.39678585  0.01318010  0.21899821     0.86300
C554        C  0.37467445  0.03801483  0.22489119    -0.53900
C555        C  0.35734943  0.03390415  0.24909484     0.09200
C556        C  0.36408209  0.00456952  0.26586185     0.20200
C557        C  0.41477101  0.01097318  0.24873724    -0.54600
C558        C  0.39736938  0.00689372  0.27337287     0.09300
C559        C  0.37942515  0.98415354  0.21868264    -0.54200
C560        C  0.36254858  0.97915957  0.24286851     0.09900
H561        H  0.37461721  0.05856101  0.21213273     0.14400
H562        H  0.34975729  0.00087841  0.28541303     0.00200
H563        H  0.43859972  0.01056785  0.25047134     0.14700
H564        H  0.38104774  0.96819117  0.20081226     0.14500
O565        O  0.98157613  0.99742904  0.57128182    -0.88500
C566        C  0.05741266  0.00197488  0.52564451     0.87500
Mg567      Mg  0.94386454  0.97429430  0.55359939     1.58100
O568        O  0.01764606  0.06831412  0.52777851    -0.88200
O569        O  0.99441393  0.04155851  0.58738145    -0.75600
C570        C  0.92861358  0.02458598  0.41558064     0.92600
O571        O  0.00952004  0.95134532  0.52659310    -0.75400
O572        O  0.92167095  0.00280591  0.43223453    -0.82900
Mg573      Mg  0.02233256  0.97359847  0.57108243     1.58000
C574        C  0.00309329  0.12059912  0.45502821     0.92500
O575        O  0.03653695  0.99339001  0.61709471    -0.81200
H576        H  0.99773622  0.09976348  0.55142691    -0.06500
C577        C  0.00501870  0.01981575  0.45286773     0.87400
O578        O  0.92296862  0.01884491  0.53912891    -0.75700
O579        O  0.04187419  0.00915145  0.54690805    -0.88400
O580        O  0.02397503  0.10842089  0.46990376    -0.81200
C581        C  0.09779210  0.07664513  0.52586502     0.92600
C582        C  0.05198472  0.01503135  0.62723109     0.92500
Mg583      Mg  0.95987731  0.06518234  0.47115717     1.58000
O584        O  0.94396442  0.04649959  0.42518284    -0.81200
O585        O  0.97404910  0.08668142  0.51529991    -0.75400
O586        O  0.08716568  0.06377946  0.54876095    -0.81200
O587        O  0.00269408  0.93360973  0.59451076    -0.83000
O588        O  0.89712876  0.97136508  0.49117586    -0.81300
C589        C  0.99686963  0.08566192  0.53214236     0.86900
O590        O  0.94055430  0.02861616  0.49483179    -0.88400
O591        O  0.00051383  0.04105064  0.46941193    -0.88500
O592        O  0.98794703  0.99738958  0.45239995    -0.75600
Mg593      Mg  0.03990736  0.05190600  0.56668249     1.58000
O594        O  0.08185604  0.08239560  0.50311611    -0.83000
H595        H  0.95679720  0.02017877  0.59974468    -0.06700
O596        O  0.96650790  0.97002678  0.51265939    -0.88200
H597        H  0.98717478  0.93872927  0.48940178    -0.06500
H598        H  0.91069537  0.05460931  0.51430114    -0.06700
C599        C  0.98742846  0.95272398  0.50877694     0.86900
C600        C  0.97681528  0.01943780  0.58681597     0.87500
C601        C  0.92402146  0.03472243  0.51569246     0.87500
H602        H  0.02449673  0.01993654  0.43911597    -0.06700
O603        O  0.05807607  0.01710681  0.50174113    -0.75700
Mg604      Mg  0.94351908  0.98608624  0.47413428     1.58000
H605        H  0.07000425  0.98161260  0.52704484    -0.06700
C606        C  0.98269313  0.91709266  0.58334925     0.92500
O607        O  0.90261663  0.95154485  0.53613920    -0.82900
C608        C  0.88703432  0.95643105  0.51296887     0.92500
O609        O  0.06048114  0.03577788  0.61005249    -0.82900
Mg610      Mg  0.03925952  0.06215561  0.48647129     1.58200
O611        O  0.96188607  0.92814921  0.56745066    -0.81200
O612        O  0.97961959  0.10604804  0.44849962    -0.82900
O613        O  0.03429710  0.96744319  0.01273293    -0.88500
C614        C  0.01864457  0.01580527  0.08593529     0.87500
Mg615      Mg  0.05868783  0.98600715  0.97696428     1.58100
O616        O  0.95655100  0.00845459  0.03987174    -0.88200
O617        O  0.98933813  0.95035595  0.02033628    -0.75600
C618        C  0.00006887  0.12004879  0.95281437     0.92600
O619        O  0.07524197  0.01589348  0.04431682    -0.75400
O620        O  0.02388507  0.10523344  0.95047725    -0.82900
Mg621      Mg  0.05385078  0.97067376  0.05591840     1.58000
C622        C  0.89992668  0.07650207  0.01857204     0.92500
O623        O  0.03440742  0.92394919  0.06862158    -0.81200
H624        H  0.92756226  0.98224427  0.01872973    -0.06500
C625        C  0.00089568  0.08607040  0.03198072     0.87400
O626        O  0.01477178  0.99799175  0.95308092    -0.75700
O627        O  0.01468928  0.99352380  0.07034737    -0.88400
O628        O  0.91062554  0.06335937  0.04150426    -0.81200
C629        C  0.93967628  0.00926552  0.11808339     0.92600
C630        C  0.01133444  0.91297333  0.08079046     0.92500
Mg631      Mg  0.96045097  0.06347094  0.98240228     1.58000
O632        O  0.97729601  0.10981609  0.96610102    -0.81200
O633        O  0.94010121  0.01850694  0.99508403    -0.75400
O634        O  0.95553300  0.98783907  0.10889592    -0.81200
O635        O  0.09765269  0.94914599  0.04141140    -0.83000
O636        O  0.05829095  0.04722229  0.93015193    -0.81300
C637        C  0.94064562  0.00236258  0.01825557     0.86900
O638        O  0.00034453  0.04159079  0.96903542    -0.88400
O639        O  0.98025462  0.06907277  0.02539762    -0.88500
O640        O  0.02511651  0.08650462  0.01777900    -0.75600
Mg641      Mg  0.97331394  0.97100568  0.06387727     1.58000
O642        O  0.93415588  0.03184369  0.10197451    -0.83000
H643        H  0.01509876  0.93756419  0.98611959    -0.06700
O644        O  0.05902403  0.02763511  0.99964184    -0.88200
H645        H  0.08789707  0.05303759  0.02199254    -0.06500
H646        H  0.97801918  0.01931039  0.93776883    -0.06700
C647        C  0.07471860  0.03297710  0.02169473     0.86900
C648        C  0.01332995  0.95102872  0.00576537     0.87500
C649        C  0.99700545  0.01992369  0.95257844     0.87500
H650        H  0.99870515  0.10015285  0.05113910    -0.06700
O651        O  0.00137501  0.03818195  0.08485027    -0.75700
Mg652      Mg  0.04133407  0.06487409  0.97491668     1.58000
H653        H  0.03791804  0.01663407  0.10035662    -0.06700
C654        C  0.11445412  0.95625821  0.01993052     0.92500
O655        O  0.08254036  0.00468227  0.93664915    -0.82900
C656        C  0.07434252  0.02636082  0.92025297     0.92500
O657        O  0.98928012  0.92938074  0.08674008    -0.82900
Mg658      Mg  0.95694550  0.05025880  0.06176526     1.58200
O659        O  0.10419086  0.97136209  0.99794431    -0.81200
O660        O  0.91603864  0.08339956  0.99645305    -0.82900
O661        O  0.47017719  0.04921989  0.49135030    -0.88500
C662        C  0.48393624  0.99931315  0.56515296     0.87500
Mg663      Mg  0.44475382  0.03201883  0.45517794     1.58100
O664        O  0.54569624  0.00317951  0.51938451    -0.88200
O665        O  0.51639256  0.06309064  0.49915775    -0.75600
C666        C  0.49372368  0.89273065  0.43670424     0.92600
O667        O  0.42732859  0.00226330  0.52230846    -0.75400
O668        O  0.47121820  0.90914458  0.43187801    -0.82900
Mg669      Mg  0.45101916  0.04604634  0.53439103     1.58000
C670        C  0.59821758  0.93431322  0.49974030     0.92500
O671        O  0.47283380  0.09191777  0.54874284    -0.81200
H672        H  0.57563070  0.02793251  0.49807729    -0.06500
C673        C  0.49656747  0.92950017  0.51274372     0.87400
O674        O  0.48787844  0.01753030  0.43224406    -0.75700
O675        O  0.48896025  0.02092014  0.54876844    -0.88400
O676        O  0.58809217  0.94785707  0.52222946    -0.81200
C677        C  0.56110176  0.00025738  0.59946870     0.92600
C678        C  0.49701018  0.09967194  0.56185799     0.92500
Mg679      Mg  0.53771667  0.94854210  0.46313180     1.58000
O680        O  0.51715069  0.90287873  0.44940117    -0.81200
O681        O  0.56078698  0.99248759  0.47467747    -0.75400
O682        O  0.54685586  0.02217798  0.58838620    -0.81200
O683        O  0.40771526  0.06883964  0.51974333    -0.83000
O684        O  0.44075971  0.97069469  0.40862636    -0.81300
C685        C  0.56152402  0.00851348  0.49774426     0.86900
O686        O  0.49924935  0.97259968  0.44823067    -0.88400
O687        O  0.51821413  0.94504869  0.50605017    -0.88500
O688        O  0.47235755  0.93015458  0.49798055    -0.75600
Mg689      Mg  0.53142313  0.04078080  0.54283890     1.58000
O690        O  0.56793909  0.97838573  0.58333956    -0.83000
H691        H  0.49091882  0.07818209  0.46492528    -0.06700
O692        O  0.44216683  0.99027943  0.47774217    -0.88200
H693        H  0.41212186  0.96634457  0.49980480    -0.06500
H694        H  0.52289793  0.99384495  0.41740826    -0.06700
C695        C  0.42646693  0.98558616  0.49964112     0.86900
C696        C  0.49210758  0.06431968  0.48454990     0.87500
C697        C  0.50396721  0.99430563  0.43188589     0.87500
H698        H  0.49792178  0.91573060  0.53242211    -0.06700
O699        O  0.49999198  0.97605719  0.56515622    -0.75700
Mg700      Mg  0.45697123  0.95187352  0.45415923     1.58000
H701        H  0.46481981  0.99991681  0.57937776    -0.06700
C702        C  0.39049667  0.06210604  0.49811993     0.92500
O703        O  0.42040621  0.01534753  0.41428349    -0.82900
C704        C  0.42669577  0.99311239  0.39826097     0.92500
O705        O  0.51846307  0.08192485  0.56534904    -0.82900
Mg706      Mg  0.54332080  0.96195798  0.54242782     1.58200
O707        O  0.39977255  0.04787896  0.47557071    -0.81200
O708        O  0.58120185  0.92643067  0.47838022    -0.82900
C709        C  0.25427091  0.15322023  0.54524490     0.86300
C710        C  0.27808918  0.12948593  0.53941993    -0.53900
C711        C  0.27440455  0.11367293  0.51418845     0.09200
C712        C  0.24483960  0.12119690  0.49760894     0.20200
C713        C  0.25292734  0.17120989  0.51580434    -0.54600
C714        C  0.24752508  0.15469672  0.49027616     0.09300
C715        C  0.22540578  0.13557856  0.54574980    -0.54200
C716        C  0.21923751  0.11991822  0.52095948     0.09900
H717        H  0.29755344  0.12560356  0.55309444     0.14400
H718        H  0.24166349  0.10621230  0.47879778     0.00200
H719        H  0.25547606  0.19510340  0.51589985     0.14700
H720        H  0.20983246  0.13657798  0.56389187     0.14500
O721        O  0.47633696  0.03095097  0.02805477    -0.88500
C722        C  0.56377865  0.01125987  0.03293190     0.87500
Mg723      Mg  0.44251120  0.99877041  0.03410197     1.58100
O724        O  0.53802715  0.02396051  0.96076377    -0.88200
O725        O  0.49002196  0.06227779  0.99327927    -0.75600
C726        C  0.48547241  0.88538864  0.95150576     0.92600
O727        O  0.50957216  0.98198490  0.06814073    -0.75400
O728        O  0.46999422  0.89169233  0.97393637    -0.82900
Mg729      Mg  0.51109961  0.03249915  0.06100850     1.58000
C730        C  0.55902026  0.97080291  0.89125114     0.92500
O731        O  0.51197719  0.08318129  0.05774537    -0.81200
H732        H  0.51850454  0.05064431  0.93087551    -0.06500
C733        C  0.54326534  0.93792915  0.98623355     0.87400
O734        O  0.43735341  0.99380190  0.98349968    -0.75700
O735        O  0.54253615  0.02760951  0.02670618    -0.88400
O736        O  0.57174024  0.98558333  0.91187979    -0.81200
C737        C  0.61344205  0.04831177  0.97574808     0.92600
C738        C  0.52434703  0.10447507  0.04398977     0.92500
Mg739      Mg  0.50331968  0.95712569  0.93483264     1.58000
O740        O  0.50005910  0.90544309  0.93759816    -0.81200
O741        O  0.50549147  0.00761872  0.92822017    -0.75400
O742        O  0.59165495  0.06062975  0.98867198    -0.81200
O743        O  0.47960922  0.03623115  0.09914792    -0.83000
O744        O  0.42088629  0.93068964  0.00809039    -0.81300
C745        C  0.52103069  0.02832632  0.93946389     0.86900
O746        O  0.47146116  0.96232781  0.96952353    -0.88400
O747        O  0.53800015  0.95791490  0.96793336    -0.88500
O748        O  0.52313971  0.92663676  0.00237386    -0.75600
Mg749      Mg  0.54076892  0.05963727  0.99133842     1.58000
O750        O  0.60998769  0.02466447  0.96072128    -0.83000
H751        H  0.44748069  0.05712278  0.00648896    -0.06700
O752        O  0.47645775  0.96565404  0.03613116    -0.88200
H753        H  0.49657100  0.93892491  0.06561404    -0.06500
H754        H  0.44198610  0.97996046  0.94107463    -0.06700
C755        C  0.49386732  0.96125506  0.05711447     0.86900
C756        C  0.47034559  0.05054316  0.00958689     0.87500
C757        C  0.44992200  0.97841616  0.96372444     0.87500
H758        H  0.56587972  0.93052542  0.98929335    -0.06700
O759        O  0.57617414  0.99517518  0.01362880    -0.75700
Mg760      Mg  0.47234483  0.93056009  0.00505855     1.58000
H761        H  0.57133065  0.00980490  0.05571648    -0.06700
C762        C  0.45674993  0.02083730  0.10470495     0.92500
O763        O  0.40455572  0.96531572  0.03848982    -0.82900
C764        C  0.39969407  0.94283502  0.02219717     0.92500
O765        O  0.54125433  0.09973084  0.02207826    -0.82900
Mg766      Mg  0.57207296  0.99070675  0.96309059     1.58200
O767        O  0.44389778  0.00519149  0.08479860    -0.81200
O768        O  0.53609703  0.95485548  0.89609337    -0.82900
C769        C  0.51354422  0.21950677  0.09942197     0.86300
C770        C  0.49347158  0.21432271  0.12658329    -0.53900
C771        C  0.49375397  0.23650987  0.14697237     0.09200
C772        C  0.51533963  0.26190543  0.13900669     0.20200
C773        C  0.50392638  0.25035402  0.08741785    -0.54600
C774        C  0.50499904  0.27265514  0.10818710     0.09300
C775        C  0.54426299  0.22457799  0.11352963    -0.54200
C776        C  0.54562021  0.24732414  0.13313317     0.09900
H777        H  0.47869570  0.19554261  0.12918865     0.14400
H778        H  0.51631714  0.27964610  0.15596541     0.00200
H779        H  0.49847838  0.25442113  0.06426485     0.14700
H780        H  0.56376870  0.21180392  0.10809160     0.14500
O781        O  0.45989061  0.50864420  0.98281416    -0.88500
C782        C  0.50745563  0.43286659  0.99242993     0.87500
Mg783      Mg  0.47544317  0.54558659  0.95766115     1.58100
O784        O  0.50561163  0.47637820  0.05625248    -0.88200
O785        O  0.44576922  0.49843018  0.02818117    -0.75600
C786        C  0.61311690  0.56602069  0.00612698     0.92600
O787        O  0.50497078  0.47858323  0.93807578    -0.75400
O788        O  0.59651542  0.57045412  0.98359670    -0.82900
Mg789      Mg  0.46163454  0.46632253  0.96184871     1.58000
C790        C  0.57846679  0.49486285  0.10540752     0.92500
O791        O  0.41675339  0.45335059  0.98290975    -0.81200
H792        H  0.48210838  0.49698730  0.08724586    -0.06500
C793        C  0.57839734  0.48726552  0.00510029     0.87400
O794        O  0.49045249  0.56867805  0.00069199    -0.75700
O795        O  0.48663659  0.44945980  0.99870285    -0.88400
O796        O  0.56434724  0.47245808  0.09530962    -0.81200
C797        C  0.50726798  0.39710449  0.07107902     0.92600
C798        C  0.40729808  0.43964324  0.00572429     0.92500
Mg799      Mg  0.55946632  0.53474951  0.04824738     1.58000
O800        O  0.60428683  0.55162262  0.02890001    -0.81200
O801        O  0.51652661  0.52123494  0.07156189    -0.75400
O802        O  0.48455589  0.40785686  0.05769725    -0.81200
O803        O  0.43723805  0.48260089  0.92074191    -0.83000
O804        O  0.53632211  0.59296070  0.95245242    -0.81300
C805        C  0.50087558  0.49778795  0.07256031     0.86900
O806        O  0.53482023  0.55139636  0.01094793    -0.88400
O807        O  0.56268117  0.49246364  0.02676260    -0.88500
O808        O  0.57767182  0.50343148  0.98189618    -0.75600
Mg809      Mg  0.46711422  0.45381686  0.04140995     1.58000
O810        O  0.53082974  0.41242835  0.07401471    -0.83000
H811        H  0.43169384  0.53443949  0.00477386    -0.06700
O812        O  0.51689940  0.52333681  0.95329994    -0.88200
H813        H  0.54038874  0.50177808  0.92289319    -0.06500
H814        H  0.51564732  0.58263995  0.03547722    -0.06700
C815        C  0.52141446  0.50157266  0.93732242     0.86900
C816        C  0.44503719  0.51453428  0.00492415     0.87500
C817        C  0.51403276  0.56832008  0.01639230     0.87500
H818        H  0.59249081  0.46788531  0.00556525    -0.06700
O819        O  0.53152051  0.43257775  0.00734490    -0.75700
Mg820      Mg  0.55497811  0.54728558  0.96844331     1.58000
H821        H  0.50552028  0.41898768  0.97304598    -0.06700
C822        C  0.44315595  0.50455405  0.90388035     0.92500
O823        O  0.49134990  0.58596931  0.93280652    -0.82900
C824        C  0.51391461  0.60225388  0.93761600     0.92500
O825        O  0.42492983  0.43217655  0.02665297    -0.82900
Mg826      Mg  0.54701341  0.45430767  0.05068832     1.58200
O827        O  0.45842145  0.52648675  0.91314226    -0.81200
O828        O  0.58310948  0.51759640  0.08926163    -0.82900
O829        O  0.04611034  0.50336089  0.47436319    -0.88500
C830        C  0.99800724  0.57840727  0.48300814     0.87500
Mg831      Mg  0.02891841  0.46554359  0.45083497     1.58100
O832        O  0.00404693  0.53672278  0.54820032    -0.88200
O833        O  0.06291062  0.51479129  0.51876904    -0.75600
C834        C  0.89306665  0.44496753  0.50622955     0.92600
O835        O  0.99826684  0.53160040  0.43052786    -0.75400
O836        O  0.90810101  0.43987749  0.48305161    -0.82900
Mg837      Mg  0.04299890  0.54535879  0.45211669     1.58000
C838        C  0.93428853  0.51829186  0.60168219     0.92500
O839        O  0.08917747  0.56066841  0.47059398    -0.81200
H840        H  0.02973680  0.51624733  0.57831838    -0.06500
C841        C  0.92766089  0.52357587  0.50069922     0.87400
O842        O  0.01600407  0.44353116  0.49518799    -0.75700
O843        O  0.01995700  0.56295977  0.48919785    -0.88400
O844        O  0.94713220  0.54076465  0.59007125    -0.81200
C845        C  0.00143796  0.61645146  0.55930532     0.92600
C846        C  0.10025008  0.57479021  0.49256611     0.92500
Mg847      Mg  0.94961999  0.47730615  0.54477017     1.58000
O848        O  0.90350189  0.45993824  0.52797424    -0.81200
O849        O  0.99411168  0.49197681  0.56516139    -0.75400
O850        O  0.02412496  0.60578153  0.54639842    -0.81200
O851        O  0.06572613  0.52814708  0.41126775    -0.83000
O852        O  0.96776498  0.41691298  0.44990532    -0.81300
C853        C  0.00990403  0.51538794  0.56468280     0.86900
O854        O  0.97191254  0.46009514  0.50678978    -0.88400
O855        O  0.94471126  0.51897493  0.52193222    -0.88500
O856        O  0.92716235  0.50698633  0.47797802    -0.75600
Mg857      Mg  0.04200485  0.55958288  0.53148922     1.58000
O858        O  0.97823401  0.60101465  0.56398623    -0.83000
H859        H  0.07575706  0.47826454  0.49618160    -0.06700
O860        O  0.98673872  0.48709516  0.44726853    -0.88200
H861        H  0.96170324  0.50864807  0.41729196    -0.06500
H862        H  0.99332693  0.42973897  0.53139598    -0.06700
C863        C  0.98149501  0.50879400  0.43101786     0.86900
C864        C  0.06230399  0.49809559  0.49610931     0.87500
C865        C  0.99341376  0.44372691  0.51183868     0.87500
H866        H  0.91341973  0.54283879  0.50106933    -0.06700
O867        O  0.97472030  0.57817451  0.49869432    -0.75700
Mg868      Mg  0.94927960  0.46298999  0.46498343     1.58000
H869        H  0.99821358  0.59167014  0.46295737    -0.06700
C870        C  0.06014908  0.50570796  0.39514989     0.92500
O871        O  0.01146442  0.42395719  0.42817938    -0.82900
C872        C  0.98945726  0.40743630  0.43462763     0.92500
O873        O  0.08471055  0.58116499  0.51508720    -0.82900
Mg874      Mg  0.96166671  0.55787892  0.54359160     1.58200
O875        O  0.04477957  0.48384541  0.40473745    -0.81200
O876        O  0.92878744  0.49477174  0.58701621    -0.82900
O877        O  0.97722648  0.46841938  0.97216579    -0.88500
C878        C  0.06416625  0.48997197  0.97014941     0.87500
Mg879      Mg  0.94388050  0.50109732  0.96560781     1.58100
O880        O  0.03645430  0.47742981  0.04135703    -0.88200
O881        O  0.99075959  0.43659792  0.00673815    -0.75600
C882        C  0.98841814  0.61626100  0.04598300     0.92600
O883        O  0.00982455  0.51772382  0.93206254    -0.75400
O884        O  0.97173816  0.61017283  0.02394013    -0.82900
Mg885      Mg  0.01168902  0.46734909  0.93966795     1.58000
C886        C  0.05634106  0.53174491  0.11144459     0.92500
O887        O  0.01445319  0.41622458  0.94311380    -0.81200
H888        H  0.01602039  0.45106868  0.07059297    -0.06500
C889        C  0.04388806  0.56249896  0.01527584     0.87400
O890        O  0.93865227  0.50642731  0.01592870    -0.75700
O891        O  0.04287662  0.47332751  0.97516643    -0.88400
O892        O  0.06885916  0.51562775  0.09207050    -0.81200
C893        C  0.11280443  0.45577037  0.02926207     0.92600
C894        C  0.02904810  0.39625179  0.95711524     0.92500
Mg895      Mg  0.00295988  0.54505437  0.06548028     1.58000
O896        O  0.00177033  0.59610252  0.06089945    -0.81200
O897        O  0.00413243  0.49442315  0.07305440    -0.75400
O898        O  0.09179298  0.44345292  0.01473318    -0.81200
O899        O  0.97922112  0.46346940  0.90051781    -0.83000
O900        O  0.92291739  0.57084341  0.98979726    -0.81300
C901        C  0.01910554  0.47333288  0.06208468     0.86900
O902        O  0.97174061  0.53934779  0.03015141    -0.88400
O903        O  0.03762280  0.54303853  0.03368063    -0.88500
O904        O  0.02448083  0.57382079  0.99798387    -0.75600
Mg905      Mg  0.04132135  0.44169161  0.01077436     1.58000
O906        O  0.10797083  0.47740692  0.04641235    -0.83000
H907        H  0.94846689  0.44076203  0.99148742    -0.06700
O908        O  0.97783766  0.53422043  0.96419815    -0.88200
H909        H  0.99714142  0.56081572  0.93443493    -0.06500
H910        H  0.94243630  0.52152782  0.05807047    -0.06700
C911        C  0.99462643  0.53854001  0.94310127     0.86900
C912        C  0.97119888  0.44815720  0.98977983     0.87500
C913        C  0.95051304  0.52280790  0.03562485     0.87500
H914        H  0.06675536  0.56932293  0.01312848    -0.06700
O915        O  0.07619912  0.50568928  0.99034245    -0.75700
Mg916      Mg  0.97381543  0.57033471  0.99403730     1.58000
H917        H  0.07232257  0.49175735  0.94776445    -0.06700
C918        C  0.95673062  0.47970871  0.89492593     0.92500
O919        O  0.90719001  0.53472542  0.95996074    -0.82900
C920        C  0.90249409  0.55801905  0.97489398     0.92500
O921        O  0.04497773  0.40207410  0.97979811    -0.82900
Mg922      Mg  0.07073398  0.51051917  0.04092137     1.58200
O923        O  0.94465936  0.49511713  0.91511030    -0.81200
O924        O  0.03484599  0.54893006  0.10489414    -0.82900
C925        C  0.14875589  0.47564034  0.24590304     0.86300
C926        C  0.12513348  0.48052059  0.22166288    -0.53900
C927        C  0.10791740  0.50505317  0.22512958     0.09200
C928        C  0.11611728  0.52321927  0.25291736     0.20200
C929        C  0.16643931  0.50551425  0.24574713    -0.54600
C930        C  0.14919479  0.53051016  0.24880378     0.09300
C931        C  0.13280411  0.47687077  0.27566484    -0.54200
C932        C  0.11583222  0.50139356  0.27965737     0.09900
H933        H  0.12352581  0.46655102  0.20217155     0.14400
H934        H  0.10179883  0.54298187  0.25582652     0.00200
H935        H  0.19024944  0.50717754  0.24604352     0.14700
H936        H  0.13534908  0.45985877  0.29268577     0.14500
O937        O  0.44751697  0.48258797  0.53453559    -0.88500
C938        C  0.49412519  0.55921755  0.52096722     0.87500
Mg939      Mg  0.46719093  0.44517136  0.55626042     1.58100
O940        O  0.48574810  0.51630310  0.45649433    -0.88200
O941        O  0.42926044  0.49346925  0.49043877    -0.75600
C942        C  0.59954191  0.43209154  0.49528886     0.92600
O943        O  0.49768141  0.51215332  0.57600463    -0.75400
O944        O  0.58637807  0.42589087  0.51928520    -0.82900
Mg945      Mg  0.45208507  0.52444432  0.55640705     1.58000
C946        C  0.55594119  0.50041593  0.40166476     0.92500
O947        O  0.40503153  0.53967376  0.54062243    -0.81200
H948        H  0.45909704  0.49612361  0.42719263    -0.06500
C949        C  0.56321717  0.50799740  0.50096425     0.87400
O950        O  0.47790991  0.42433216  0.51134075    -0.75700
O951        O  0.47306089  0.54200098  0.51707402    -0.88400
O952        O  0.54188689  0.52234149  0.41237175    -0.81200
C953        C  0.48511271  0.59509305  0.44195701     0.92600
C954        C  0.39474663  0.55466981  0.51870746     0.92500
Mg955      Mg  0.54078116  0.46000488  0.45888685     1.58000
O956        O  0.58705291  0.44603484  0.47403577    -0.81200
O957        O  0.49537881  0.47214158  0.43910896    -0.75400
O958        O  0.46474004  0.58498448  0.45874446    -0.81200
O959        O  0.43276023  0.50614753  0.59975141    -0.83000
O960        O  0.53118903  0.40096502  0.55505956    -0.81300
C961        C  0.47939831  0.49527169  0.44012005     0.86900
O962        O  0.52073601  0.44291600  0.49802106    -0.88400
O963        O  0.54573198  0.50212709  0.48049167    -0.88500
O964        O  0.56515119  0.49197050  0.52417907    -0.75600
Mg965      Mg  0.44920378  0.53830170  0.47594960     1.58000
O966        O  0.50787588  0.57989550  0.43569613    -0.83000
H967        H  0.41705313  0.45727287  0.51438859    -0.06700
O968        O  0.50855263  0.46864759  0.55769534    -0.88200
H969        H  0.53468185  0.48899292  0.58735146    -0.06500
H970        H  0.49961125  0.41192823  0.47428822    -0.06700
C971        C  0.51436977  0.48954929  0.57442593     0.86900
C972        C  0.43052424  0.47711994  0.51352132     0.87500
C973        C  0.49978632  0.42562300  0.49387597     0.87500
H974        H  0.57646572  0.52796280  0.49953174    -0.06700
O975        O  0.51564289  0.56065342  0.50301748    -0.75700
Mg976      Mg  0.54577633  0.44707908  0.53854147     1.58000
H977        H  0.49456862  0.57297175  0.54051173    -0.06700
C978        C  0.43983328  0.48290125  0.61452975     0.92500
O979        O  0.48755740  0.40467652  0.57729105    -0.82900
C980        C  0.51068194  0.38999857  0.57089286     0.92500
O981        O  0.40964996  0.55958821  0.49545116    -0.82900
Mg982      Mg  0.52714889  0.53940477  0.45819419     1.58200
O983        O  0.45398485  0.46149103  0.60296349    -0.81200
O984        O  0.56063589  0.47677525  0.41643602    -0.82900
C985        C  0.98245287  0.79050605  0.61099506     0.86300
C986        C  0.00527054  0.78704426  0.63630049    -0.53900
C987        C  0.00705582  0.75950020  0.64863384     0.09200
C988        C  0.98283121  0.73807317  0.63641025     0.20200
C989        C  0.98887227  0.76442707  0.58971414    -0.54600
C990        C  0.98841506  0.73679418  0.60284617     0.09300
C991        C  0.95362504  0.78256964  0.62655793    -0.54200
C992        C  0.95292584  0.75494153  0.63897718     0.09900
H993        H  0.02134365  0.80399725  0.64226762     0.14400
H994        H  0.98281348  0.71592977  0.64720731     0.00200
H995        H  0.99441566  0.76804642  0.56670616     0.14700
H996        H  0.93466189  0.79725121  0.62730352     0.14500
O997        O  0.18200864  0.76791182  0.75325517    -0.88500
C998        C  0.23164934  0.76397039  0.67890333     0.87500
Mg999      Mg  0.19742999  0.78914742  0.79302166     1.58100
O1000       O  0.22596870  0.69626931  0.71683399    -0.88200
O1001       O  0.16610914  0.72424035  0.73835175    -0.75600
C1002       C  0.33331440  0.73726858  0.81112932     0.92600
O1003       O  0.22976883  0.81420590  0.72863025    -0.75400
O1004       O  0.31720618  0.75897011  0.81877514    -0.82900
Mg1005     Mg  0.18606088  0.79287019  0.71268303     1.58000
C1006       C  0.29846544  0.64512814  0.73497490     0.92500
O1007       O  0.14076540  0.77425456  0.69553268    -0.81200
H1008       H  0.20073109  0.66449887  0.73473284    -0.06500
C1009       C  0.29949470  0.74515274  0.73386294     0.87400
O1010       O  0.21034460  0.74406816  0.81335689    -0.75700
O1011       O  0.21016014  0.75689741  0.69426969    -0.88400
O1012       O  0.28461989  0.65559808  0.71236217    -0.81200
C1013       C  0.23069154  0.69131154  0.63678336     0.92600
C1014       C  0.13117165  0.75331231  0.67896705     0.92500
Mg1015     Mg  0.27838154  0.69896224  0.77741337     1.58000
O1016       O  0.32345331  0.71639225  0.79484284    -0.81200
O1017       O  0.23497462  0.67756609  0.76111474    -0.75400
O1018       O  0.20824220  0.70381973  0.64813612    -0.81200
O1019       O  0.16326780  0.83382632  0.73084362    -0.83000
O1020       O  0.25825616  0.79067875  0.84224963    -0.81300
C1021       C  0.21999486  0.67862811  0.73708330     0.86900
O1022       O  0.25465010  0.73503343  0.79627192    -0.88400
O1023       O  0.28310530  0.72333158  0.73701785    -0.88500
O1024       O  0.29930353  0.76680809  0.75179448    -0.75600
Mg1025     Mg  0.18880093  0.71459086  0.69385639     1.58000
O1026       O  0.25341286  0.68410495  0.65227230    -0.83000
H1027       H  0.15179871  0.74448596  0.77562237    -0.06700
O1028       O  0.23960007  0.79501034  0.77256894    -0.88200
H1029       H  0.26476120  0.82667703  0.75434439    -0.06500
H1030       H  0.23475705  0.70804266  0.82529595    -0.06700
C1031       C  0.24533894  0.81272007  0.75228996     0.86900
C1032       C  0.16591431  0.74582133  0.75644865     0.87500
C1033       C  0.23364089  0.72831698  0.81239234     0.87500
H1034       H  0.31382714  0.74620870  0.71483427    -0.06700
O1035       O  0.25499543  0.74824798  0.67807325    -0.75700
Mg1036     Mg  0.27662199  0.77715569  0.79601929     1.58000
H1037       H  0.23091189  0.78460655  0.66656273    -0.06700
C1038       C  0.16920562  0.84744205  0.75483678     0.92500
O1039       O  0.21327705  0.81033592  0.83624433    -0.82900
C1040       C  0.23617560  0.80508918  0.85220066     0.92500
O1041       O  0.14778380  0.73223253  0.67082350    -0.82900
Mg1042     Mg  0.26842693  0.70263038  0.69689177     1.58200
O1043       O  0.18280716  0.83498743  0.77639722    -0.81200
O1044       O  0.30174169  0.65970842  0.75879011    -0.82900
C1045       C  0.45463064  0.74551277  0.85737776     0.86300
C1046       C  0.45897852  0.77115333  0.87888809    -0.53900
C1047       C  0.48563779  0.77198329  0.89341645     0.09200
C1048       C  0.50663493  0.74681854  0.88349857     0.20200
C1049       C  0.48091506  0.74998348  0.83561531    -0.54600
C1050       C  0.50829989  0.75074470  0.84942085     0.09300
C1051       C  0.46274636  0.71708046  0.87403639    -0.54200
C1052       C  0.48991633  0.71706886  0.88705294     0.09900
H1053       H  0.44267311  0.78859577  0.88114929     0.14400
H1054       H  0.52823321  0.74651310  0.89521489     0.00200
H1055       H  0.47867348  0.75121025  0.81183518     0.14700
H1056       H  0.44851366  0.69758528  0.87405092     0.14500
C1057       C  0.36882993  0.74149026  0.85223268    -0.06000
C1058       C  0.36424913  0.73658866  0.82207476     0.00000
C1059       C  0.38886735  0.73353203  0.80325206    -0.08600
C1060       C  0.41754279  0.73704258  0.81536488    -0.06000
C1061       C  0.42256233  0.74299999  0.84569979     0.00000
C1062       C  0.39727294  0.74328534  0.86498105    -0.08500
C1063       C  0.39810649  0.74721989  0.89872590     0.61900
H1064       H  0.34948159  0.74390471  0.86606429     0.12600
H1065       H  0.43609065  0.73413797  0.80091643     0.12600
C1066       C  0.38492271  0.72741431  0.77036161     0.62100
F1067       F  0.39779969  0.77708704  0.90545600    -0.23100
F1068       F  0.42227592  0.73401076  0.91221729    -0.20400
F1069       F  0.37340208  0.73438680  0.91158956    -0.20100
F1070       F  0.36740642  0.74920516  0.75747439    -0.20100
F1071       F  0.37161380  0.70002813  0.76644018    -0.20400
F1072       F  0.41171776  0.72709531  0.75568920    -0.23100
C1073       C  0.05826288  0.74630665  0.63590685    -0.06000
C1074       C  0.03751412  0.75084458  0.65847070     0.00000
C1075       C  0.04794385  0.75593753  0.68771269    -0.08600
C1076       C  0.07868945  0.75624679  0.69335257    -0.06000
C1077       C  0.09929830  0.75236738  0.67066713     0.00000
C1078       C  0.08899996  0.74724044  0.64135681    -0.08500
C1079       C  0.11014752  0.74445039  0.61560794     0.61900
H1080       H  0.05012540  0.74406507  0.61338380     0.12600
H1081       H  0.08698293  0.75981170  0.71566976     0.12600
C1082       C  0.02673459  0.76144650  0.71278984     0.62100
F1083       F  0.09542357  0.74491055  0.58851060    -0.23100
F1084       F  0.12519732  0.71794473  0.61791823    -0.20400
F1085       F  0.13021126  0.76770625  0.61585816    -0.20100
F1086       F  0.00897038  0.73675918  0.71641390    -0.20100
F1087       F  0.00942548  0.78600228  0.70640869    -0.20400
F1088       F  0.04143999  0.76655331  0.73937276    -0.23100
C1089       C  0.05482910  0.50533919  0.15944595    -0.06000
C1090       C  0.06621200  0.52896984  0.14272149     0.00000
C1091       C  0.08771730  0.54797277  0.15551363    -0.08600
C1092       C  0.09893463  0.54120535  0.18412492    -0.06000
C1093       C  0.08918755  0.51607535  0.19993684     0.00000
C1094       C  0.06544740  0.49901178  0.18821972    -0.08500
C1095       C  0.05202883  0.47321724  0.20508883     0.61900
H1096       H  0.03799840  0.49122075  0.14952927     0.12600
H1097       H  0.11662542  0.55448388  0.19358193     0.12600
C1098       C  0.09925794  0.57457882  0.13843383     0.62100
F1099       F  0.02249110  0.46953185  0.19726283    -0.23100
F1100       F  0.05331748  0.47805126  0.23530858    -0.20400
F1101       F  0.06714880  0.44749674  0.19851679    -0.20100
F1102       F  0.07602055  0.59357913  0.13187773    -0.20100
F1103       F  0.11194433  0.56533181  0.11229730    -0.20400
F1104       F  0.12040261  0.59015078  0.15449307    -0.23100
C1105       C  0.98132623  0.66734725  0.55399660    -0.06000
C1106       C  0.00123814  0.64807487  0.56841869     0.00000
C1107       C  0.01863139  0.65874789  0.59226994    -0.08600
C1108       C  0.01460757  0.68823235  0.60169410    -0.06000
C1109       C  0.99426050  0.70767441  0.58776331     0.00000
C1110       C  0.97762105  0.69710672  0.56294927    -0.08500
C1111       C  0.95510409  0.71628332  0.54654700     0.61900
H1112       H  0.96835726  0.65861722  0.53567404     0.12600
H1113       H  0.02683252  0.69600680  0.62084196     0.12600
C1114       C  0.04040189  0.63859116  0.60844979     0.62100
F1115       F  0.93880000  0.70019469  0.52600010    -0.23100
F1116       F  0.96939110  0.73876552  0.53142197    -0.20400
F1117       F  0.93545296  0.72826810  0.56632893    -0.20100
F1118       F  0.06182008  0.62906115  0.58901283    -0.20100
F1119       F  0.02557159  0.61421926  0.61981199    -0.20400
F1120       F  0.05454555  0.65292843  0.63169174    -0.23100
C1121       C  0.10248206  0.51480703  0.36199926    -0.06000
C1122       C  0.07307400  0.50517588  0.36484953     0.00000
C1123       C  0.05704100  0.49673501  0.33899320    -0.08600
C1124       C  0.07133929  0.49803491  0.31124963    -0.06000
C1125       C  0.10120820  0.50648557  0.30866855     0.00000
C1126       C  0.11720244  0.51483289  0.33471758    -0.08500
C1127       C  0.14980808  0.52336912  0.33599047     0.61900
H1128       H  0.11466043  0.52142780  0.38175737     0.12600
H1129       H  0.05964374  0.49104551  0.29142483     0.12600
C1130       C  0.02508319  0.48635428  0.34058357     0.62100
F1131       F  0.15246499  0.55208814  0.34637575    -0.23100
F1132       F  0.16382008  0.52192394  0.30915129    -0.20400
F1133       F  0.16455278  0.50448141  0.35540782    -0.20100
F1134       F  0.00829123  0.50700152  0.35549521    -0.20100
F1135       F  0.02380359  0.45938422  0.35531834    -0.20400
F1136       F  0.01262309  0.48265618  0.31267074    -0.23100
C1137       C  0.50800246  0.63504133  0.89438023    -0.06000
C1138       C  0.51373744  0.63257428  0.92477687     0.00000
C1139       C  0.51569204  0.65862271  0.94216394    -0.08600
C1140       C  0.51039310  0.68645139  0.92843811    -0.06000
C1141       C  0.50301607  0.68868982  0.89820896     0.00000
C1142       C  0.50347491  0.66258342  0.88049538    -0.08500
C1143       C  0.49779810  0.66209055  0.84722581     0.61900
H1144       H  0.50652976  0.61493765  0.88132891     0.12600
H1145       H  0.51001430  0.70646342  0.94159352     0.12600
C1146       C  0.52117058  0.65677084  0.97533641     0.62100
F1147       F  0.51648697  0.64186349  0.83401290    -0.23100
F1148       F  0.50293517  0.68916659  0.83392949    -0.20400
F1149       F  0.46879997  0.65359348  0.84169201    -0.20100
F1150       F  0.54872363  0.64445309  0.98096262    -0.20100
F1151       F  0.49958679  0.63929166  0.98830344    -0.20400
F1152       F  0.52044334  0.68445703  0.98842315    -0.23100
C1153       C  0.48254319  0.34728005  0.07340166    -0.06000
C1154       C  0.50607668  0.36579670  0.08292111     0.00000
C1155       C  0.52729723  0.35382671  0.10339701    -0.08600
C1156       C  0.52485718  0.32382245  0.11190709    -0.06000
C1157       C  0.50238663  0.30507419  0.10101498     0.00000
C1158       C  0.47977118  0.31749087  0.08287154    -0.08500
C1159       C  0.45193385  0.30070555  0.07381821     0.61900
H1160       H  0.46576595  0.35619197  0.05847489     0.12600
H1161       H  0.54164952  0.31435017  0.12635894     0.12600
C1162       C  0.55279642  0.37196270  0.11634795     0.62100
F1163       F  0.44707538  0.27583421  0.09122033    -0.23100
F1164       F  0.45407858  0.29224112  0.04453516    -0.20400
F1165       F  0.42744827  0.31888608  0.07673150    -0.20100
F1166       F  0.54194592  0.39739432  0.12932977    -0.20100
F1167       F  0.57253244  0.37940608  0.09424809    -0.20400
F1168       F  0.56846539  0.35646160  0.13799345    -0.23100
C1169       C  0.51258534  0.84559537  0.92554961    -0.06000
C1170       C  0.48733505  0.85385157  0.94145875     0.00000
C1171       C  0.46524116  0.83196572  0.94706686    -0.08600
C1172       C  0.46819941  0.80387115  0.93392950    -0.06000
C1173       C  0.49158431  0.79694029  0.91475670     0.00000
C1174       C  0.51546054  0.81747285  0.91237954    -0.08500
C1175       C  0.54367488  0.81074910  0.89580968     0.61900
H1176       H  0.53008140  0.86184511  0.92297023     0.12600
H1177       H  0.45089896  0.78744631  0.93681305     0.12600
C1178       C  0.43781742  0.83814474  0.96541167     0.62100
F1179       F  0.56356643  0.83418767  0.89655794    -0.23100
F1180       F  0.53709326  0.80531468  0.86659560    -0.20400
F1181       F  0.55770185  0.78651719  0.90846536    -0.20100
F1182       F  0.42256590  0.86214932  0.95361636    -0.20100
F1183       F  0.44603351  0.84395966  0.99442081    -0.20400
F1184       F  0.41849109  0.81422675  0.96588718    -0.23100
C1185       C  0.48890689  0.17419036  0.07607999    -0.06000
C1186       C  0.51312846  0.19399084  0.07644188     0.00000
C1187       C  0.53798000  0.18622062  0.05873706    -0.08600
C1188       C  0.54115579  0.15669906  0.04942323    -0.06000
C1189       C  0.51886051  0.13549351  0.05377209     0.00000
C1190       C  0.49123629  0.14504652  0.06523133    -0.08500
C1191       C  0.46401470  0.12506618  0.06569213     0.61900
H1192       H  0.46805344  0.18137667  0.08506272     0.12600
H1193       H  0.56121849  0.15035034  0.03805638     0.12600
C1194       C  0.56067035  0.20802769  0.04703124     0.62100
F1195       F  0.43859278  0.14057872  0.07270098    -0.23100
F1196       F  0.46767599  0.10282656  0.08665401    -0.20400
F1197       F  0.45957051  0.11267636  0.03803466    -0.20100
F1198       F  0.58811987  0.20232827  0.05976199    -0.20100
F1199       F  0.55288428  0.23700706  0.05207021    -0.20400
F1200       F  0.56285744  0.20477652  0.01664537    -0.23100
C1201       C  0.35010710  0.09542049  0.48100557    -0.06000
C1202       C  0.35886610  0.07164727  0.49896677     0.00000
C1203       C  0.33770301  0.05819096  0.51779745    -0.08600
C1204       C  0.30897920  0.07069414  0.51973100    -0.06000
C1205       C  0.30061747  0.09604749  0.50326234     0.00000
C1206       C  0.32159381  0.10806792  0.48290646    -0.08500
C1207       C  0.31469610  0.13481579  0.46381029     0.61900
H1208       H  0.36647387  0.10490551  0.46631300     0.12600
H1209       H  0.29332002  0.06176589  0.53549941     0.12600
C1210       C  0.34567753  0.03082881  0.53586604     0.62100
F1211       F  0.30914863  0.15891980  0.48161064    -0.23100
F1212       F  0.29054380  0.12834950  0.44603012    -0.20400
F1213       F  0.33788109  0.14244399  0.44537993    -0.20100
F1214       F  0.36782163  0.03763631  0.55613593    -0.20100
F1215       F  0.35559567  0.00881567  0.51720293    -0.20400
F1216       F  0.32158115  0.01983743  0.55122063    -0.23100
C1217       C  0.00981796  0.83742384  0.59619332    -0.06000
C1218       C  0.98293370  0.82148625  0.59609641     0.00000
C1219       C  0.95730848  0.83648675  0.58501984    -0.08600
C1220       C  0.95784724  0.86765782  0.58289193    -0.06000
C1221       C  0.98393105  0.88418970  0.58777006     0.00000
C1222       C  0.01091588  0.86846529  0.59274465    -0.08500
C1223       C  0.04098087  0.88382716  0.59427529     0.61900
H1224       H  0.03021705  0.82537466  0.59993316     0.12600
H1225       H  0.93768952  0.87907984  0.57622904     0.12600
C1226       C  0.92999125  0.82110938  0.57241104     0.62100
F1227       F  0.06416153  0.86374036  0.59570191    -0.23100
F1228       F  0.04272133  0.90124522  0.61936514    -0.20400
F1229       F  0.04498771  0.90122159  0.56925074    -0.20100
F1230       F  0.90582013  0.82663341  0.59013749    -0.20100
F1231       F  0.93367150  0.79087658  0.56958456    -0.20400
F1232       F  0.92402114  0.83227448  0.54432557    -0.23100
C1233       C  0.13446661  0.11530803  0.51541120    -0.06000
C1234       C  0.12929260  0.08637781  0.52513954     0.00000
C1235       C  0.15382398  0.06751970  0.53100836    -0.08600
C1236       C  0.18293335  0.07863385  0.52673903    -0.06000
C1237       C  0.18822932  0.10802935  0.51738702     0.00000
C1238       C  0.16307434  0.12683302  0.51194548    -0.08500
C1239       C  0.16370518  0.15923580  0.50249347     0.61900
H1240       H  0.11553022  0.12953316  0.51081342     0.12600
H1241       H  0.20190624  0.06480854  0.53202194     0.12600
C1242       C  0.14923252  0.03592292  0.54174730     0.62100
F1243       F  0.14785737  0.16262662  0.47623901    -0.23100
F1244       F  0.19154970  0.17010945  0.49787733    -0.20400
F1245       F  0.15044749  0.17628369  0.52400781    -0.20100
F1246       F  0.13099115  0.02087506  0.52208900    -0.20100
F1247       F  0.13626841  0.03616756  0.56937791    -0.20400
F1248       F  0.17573467  0.02061936  0.54413822    -0.23100
C1249       C  0.44366347  0.02089101  0.18843670    -0.06000
C1250       C  0.41247071  0.01787512  0.18922881     0.00000
C1251       C  0.39649918  0.01861812  0.16142826    -0.08600
C1252       C  0.41243265  0.02085951  0.13512703    -0.06000
C1253       C  0.44325459  0.02187090  0.13450073     0.00000
C1254       C  0.45942291  0.02256249  0.16160317    -0.08500
C1255       C  0.49310191  0.02409174  0.16242921     0.61900
H1256       H  0.45616937  0.02174548  0.20880054     0.12600
H1257       H  0.40028780  0.02132309  0.11421193     0.12600
C1258       C  0.36299264  0.01677373  0.15605342     0.62100
F1259       F  0.50438101  0.02167748  0.19102024    -0.23100
F1260       F  0.50249910  0.05095319  0.15086344    -0.20400
F1261       F  0.50475209  0.00114291  0.14602866    -0.20100
F1262       F  0.35375105  0.04245001  0.14173605    -0.20100
F1263       F  0.34583904  0.01331991  0.18069653    -0.20400
F1264       F  0.35696456  0.99291015  0.13776749    -0.23100
C1265       C  0.39655335  0.97825084  0.32037985    -0.06000
C1266       C  0.40836953  0.00246571  0.30449484     0.00000
C1267       C  0.42681397  0.02313077  0.31966840    -0.08600
C1268       C  0.43184665  0.01906879  0.35032698    -0.06000
C1269       C  0.41981786  0.99500404  0.36606999     0.00000
C1270       C  0.40214676  0.97399508  0.35087920    -0.08500
C1271       C  0.38858095  0.94775599  0.36697503     0.61900
H1272       H  0.38246839  0.96267450  0.30865225     0.12600
H1273       H  0.44579156  0.03455761  0.36236527     0.12600
C1274       C  0.44128165  0.04940028  0.30416449     0.62100
F1275       F  0.37048178  0.93102020  0.34854670    -0.23100
F1276       F  0.37175136  0.95762927  0.39036487    -0.20400
F1277       F  0.41085077  0.92958614  0.37769956    -0.20100
F1278       F  0.42075229  0.06485682  0.28721230    -0.20100
F1279       F  0.46375937  0.03945259  0.28624460    -0.20400
F1280       F  0.45366414  0.06910411  0.32423570    -0.23100
C1281       C  0.19693501  0.44798962  0.02207352    -0.06000
C1282       C  0.19940210  0.41802471  0.01356643     0.00000
C1283       C  0.17251395  0.40124499  0.00924511    -0.08600
C1284       C  0.14550029  0.41445423  0.01655428    -0.06000
C1285       C  0.14328851  0.44399394  0.02551059     0.00000
C1286       C  0.16938272  0.46154165  0.02735058    -0.08500
C1287       C  0.16845023  0.49453657  0.03420808     0.61900
H1288       H  0.21663202  0.46102866  0.02547986     0.12600
H1289       H  0.12521556  0.40177747  0.01434057     0.12600
C1290       C  0.17060169  0.37032627  0.99514021     0.62100
F1291       F  0.19598515  0.50784189  0.03137925    -0.23100
F1292       F  0.15919064  0.49873591  0.06298757    -0.20400
F1293       F  0.14918739  0.50872950  0.01472625    -0.20100
F1294       F  0.14277037  0.35772130  0.99821136    -0.20100
F1295       F  0.19031610  0.35045492  0.00767768    -0.20400
F1296       F  0.17563089  0.37269610  0.96507720    -0.23100
C1297       C  0.36730286  0.41592109  0.03449541    -0.06000
C1298       C  0.37504558  0.43270355  0.00934485     0.00000
C1299       C  0.35186337  0.44369432  0.99060054    -0.08600
C1300       C  0.32227754  0.43643621  0.99750422    -0.06000
C1301       C  0.31511310  0.41714566  0.02089609     0.00000
C1302       C  0.33794175  0.40838339  0.04097158    -0.08500
C1303       C  0.33191656  0.39284410  0.07017423     0.61900
H1304       H  0.38465451  0.40820203  0.04935726     0.12600
H1305       H  0.30436735  0.44471233  0.98366896     0.12600
C1306       C  0.35775698  0.46230669  0.96306588     0.62100
F1307       F  0.32488122  0.36357653  0.06530511    -0.23100
F1308       F  0.30918507  0.40699193  0.08444243    -0.20400
F1309       F  0.35628643  0.39341084  0.08912493    -0.20100
F1310       F  0.37488663  0.44632868  0.94357270    -0.20100
F1311       F  0.37218908  0.48827485  0.97082501    -0.20400
F1312       F  0.33182851  0.47005327  0.94826618    -0.23100
C1313       C  0.16801928  0.39126939  0.24179587    -0.06000
C1314       C  0.19873704  0.39152557  0.23747387     0.00000
C1315       C  0.21301705  0.41942908  0.23391750    -0.08600
C1316       C  0.19608582  0.44572497  0.23607600    -0.06000
C1317       C  0.16533832  0.44574558  0.24195011     0.00000
C1318       C  0.15087347  0.41728902  0.24375530    -0.08500
C1319       C  0.11770999  0.41124207  0.24733283     0.61900
H1320       H  0.15687684  0.36997861  0.24357659     0.12600
H1321       H  0.20734915  0.46643041  0.23258518     0.12600
C1322       C  0.24610429  0.42185431  0.22825353     0.62100
F1323       F  0.10755655  0.39577934  0.22282733    -0.23100
F1324       F  0.10000355  0.43577232  0.25018616    -0.20400
F1325       F  0.11353209  0.39375218  0.27225540    -0.20100
F1326       F  0.25247024  0.40986476  0.20091536    -0.20100
F1327       F  0.26175925  0.40690077  0.25022926    -0.20400
F1328       F  0.25585069  0.45101433  0.22811022    -0.23100
C1329       C  0.23772913  0.16674643  0.40502978    -0.06000
C1330       C  0.25204256  0.19379909  0.40117138     0.00000
C1331       C  0.26317022  0.20900154  0.42612750    -0.08600
C1332       C  0.26070663  0.19560858  0.45432625    -0.06000
C1333       C  0.24588755  0.16821605  0.45900878     0.00000
C1334       C  0.23264519  0.15437627  0.43325972    -0.08500
C1335       C  0.21277758  0.12709377  0.43307615     0.61900
H1336       H  0.22927946  0.15570825  0.38537349     0.12600
H1337       H  0.27143181  0.20651183  0.47271952     0.12600
C1338       C  0.27833828  0.23892683  0.42276159     0.62100
F1339       F  0.22966571  0.10187759  0.42908042    -0.23100
F1340       F  0.19221732  0.12858473  0.41005689    -0.20400
F1341       F  0.19660939  0.12478084  0.45845923    -0.20100
F1342       F  0.25829639  0.25954706  0.41182405    -0.20100
F1343       F  0.30170269  0.23655832  0.40332646    -0.20400
F1344       F  0.28937208  0.24934363  0.44950091    -0.23100
C1345       C  0.45084498  0.26434154  0.16609712    -0.06000
C1346       C  0.46891994  0.23912523  0.16857239     0.00000
C1347       C  0.45952429  0.21531402  0.18701683    -0.08600
C1348       C  0.43123108  0.21652957  0.19994472    -0.06000
C1349       C  0.41204759  0.24086244  0.19574593     0.00000
C1350       C  0.42257857  0.26576378  0.17917544    -0.08500
C1351       C  0.40428649  0.29376001  0.17461903     0.61900
H1352       H  0.45821958  0.28237918  0.15202550     0.12600
H1353       H  0.42386135  0.19775912  0.21311031     0.12600
C1354       C  0.47825625  0.18810479  0.19386721     0.62100
F1355       F  0.42061586  0.31636214  0.16168518    -0.23100
F1356       F  0.39436477  0.30393106  0.20160948    -0.20400
F1357       F  0.38037490  0.28788292  0.15612962    -0.20100
F1358       F  0.50694833  0.19054435  0.18367224    -0.20100
F1359       F  0.46506381  0.16342912  0.18123316    -0.20400
F1360       F  0.47987115  0.18389959  0.22424794    -0.23100
C1361       C  0.32074575  0.10879225  0.25189926    -0.06000
C1362       C  0.33342866  0.12022312  0.27789961     0.00000
C1363       C  0.34910422  0.10101428  0.29740987    -0.08600
C1364       C  0.35323931  0.07114341  0.28907782    -0.06000
C1365       C  0.34236925  0.06030070  0.26189533     0.00000
C1366       C  0.32400126  0.07889515  0.24412188    -0.08500
C1367       C  0.30741249  0.06811455  0.21686961     0.61900
H1368       H  0.30757721  0.12331791  0.23773124     0.12600
H1369       H  0.36673941  0.05664082  0.30281158     0.12600
C1370       C  0.36281619  0.11253911  0.32590046     0.62100
F1371       F  0.27831446  0.07774071  0.21774883    -0.23100
F1372       F  0.30682194  0.03750927  0.21529824    -0.20400
F1373       F  0.32053323  0.07958537  0.19170506    -0.20100
F1374       F  0.34086298  0.12305076  0.34419107    -0.20100
F1375       F  0.38231078  0.13535378  0.31944795    -0.20400
F1376       F  0.37828750  0.09061413  0.34112158    -0.23100
C1377       C  0.27691372  0.32246846  0.07186750    -0.06000
C1378       C  0.26377459  0.35072442  0.07216949     0.00000
C1379       C  0.26089103  0.36576909  0.09983311    -0.08600
C1380       C  0.27172066  0.35179406  0.12551990    -0.06000
C1381       C  0.28421979  0.32330144  0.12553962     0.00000
C1382       C  0.28702265  0.30824406  0.09811039    -0.08500
C1383       C  0.29994612  0.27723736  0.09631523     0.61900
H1384       H  0.27916569  0.31158941  0.05068118     0.12600
H1385       H  0.26953781  0.36307124  0.14647788     0.12600
C1386       C  0.24579096  0.39591348  0.10392134     0.62100
F1387       F  0.29930907  0.26646495  0.06764646    -0.23100
F1388       F  0.28376783  0.25794190  0.11382602    -0.20400
F1389       F  0.32918467  0.27760342  0.10585521    -0.20100
F1390       F  0.21538601  0.39217360  0.10398598    -0.20100
F1391       F  0.25341674  0.41602068  0.08214608    -0.20400
F1392       F  0.25371747  0.40881085  0.13065330    -0.23100
C1393       C  0.99410341  0.32275602  0.42936108    -0.06000
C1394       C  0.99836330  0.31930052  0.39877119     0.00000
C1395       C  0.99610837  0.34477915  0.37996408    -0.08600
C1396       C  0.99232735  0.37282516  0.39273893    -0.06000
C1397       C  0.98938640  0.37650711  0.42329352     0.00000
C1398       C  0.98964070  0.35107895  0.44203147    -0.08500
C1399       C  0.98694974  0.35411698  0.47534616     0.61900
H1400       H  0.99595371  0.30327903  0.44344781     0.12600
H1401       H  0.99199925  0.39236006  0.37854273     0.12600
C1402       C  0.99810832  0.34434263  0.34637196     0.62100
F1403       F  0.99013461  0.32709450  0.48979674    -0.23100
F1404       F  0.95938079  0.36542521  0.48206170    -0.20400
F1405       F  0.00868126  0.37308762  0.48598304    -0.20100
F1406       F  0.99737029  0.31625746  0.33461628    -0.20100
F1407       F  0.02411535  0.35808090  0.33782155    -0.20400
F1408       F  0.97437186  0.35979645  0.33424199    -0.23100
C1409       C  0.03156644  0.19913205  0.43575516    -0.06000
C1410       C  0.00734057  0.21083536  0.41945822     0.00000
C1411       C  0.97991829  0.19497455  0.42109675    -0.08600
C1412       C  0.98008065  0.16583924  0.43277409    -0.06000
C1413       C  0.00555849  0.15251740  0.44513508     0.00000
C1414       C  0.03144842  0.17041456  0.44845040    -0.08500
C1415       C  0.05926700  0.15965563  0.46458898     0.61900
H1416       H  0.05144998  0.21247942  0.43749486     0.12600
H1417       H  0.95978586  0.15303719  0.43233088     0.12600
C1418       C  0.95008671  0.20806754  0.41231288     0.62100
F1419       F  0.08124141  0.18114303  0.46545256    -0.23100
F1420       F  0.07072823  0.13521511  0.45031967    -0.20400
F1421       F  0.05258590  0.15235150  0.49359052    -0.20100
F1422       F  0.94921810  0.21414532  0.38250529    -0.20100
F1423       F  0.94505154  0.23345350  0.42851436    -0.20400
F1424       F  0.92678289  0.18887799  0.41802768    -0.23100
C1425       C  0.08316982  0.28882654  0.33066658    -0.06000
C1426       C  0.07400569  0.26118603  0.34232659     0.00000
C1427       C  0.09349899  0.23661097  0.33858571    -0.08600
C1428       C  0.12319010  0.24218068  0.33071846    -0.06000
C1429       C  0.13298521  0.27053857  0.32213850     0.00000
C1430       C  0.11226222  0.29417175  0.32110636    -0.08500
C1431       C  0.12067776  0.32525873  0.31078849     0.61900
H1432       H  0.06722960  0.30666876  0.32919455     0.12600
H1433       H  0.13845902  0.22368850  0.32927639     0.12600
C1434       C  0.08389989  0.20424720  0.33900921     0.62100
F1435       F  0.09882041  0.34578335  0.31694754    -0.23100
F1436       F  0.12488506  0.32542572  0.28047653    -0.20400
F1437       F  0.14641221  0.33439680  0.32501431    -0.20100
F1438       F  0.05348175  0.20081712  0.33787051    -0.20100
F1439       F  0.09516418  0.19033619  0.36410552    -0.20400
F1440       F  0.09499673  0.19006377  0.31437028    -0.23100
C1441       C  0.89058705  0.01921630  0.18513205    -0.06000
C1442       C  0.90896197  0.00955399  0.20882649     0.00000
C1443       C  0.93834834  0.00002053  0.20195194    -0.08600
C1444       C  0.94704002  0.99959019  0.17190691    -0.06000
C1445       C  0.92803037  0.00852925  0.14872285     0.00000
C1446       C  0.89908230  0.01807454  0.15538350    -0.08500
C1447       C  0.87660009  0.02612121  0.13124554     0.61900
H1448       H  0.86899840  0.02815866  0.18981024     0.12600
H1449       H  0.96935062  0.99307875  0.16620760     0.12600
C1450       C  0.96138854  0.99135072  0.22526122     0.62100
F1451       F  0.84815044  0.02822007  0.14225910    -0.23100
F1452       F  0.87624074  0.00451410  0.10957792    -0.20400
F1453       F  0.88381804  0.05320670  0.11868840    -0.20100
F1454       F  0.94981516  0.97137630  0.24533239    -0.20100
F1455       F  0.97123809  0.01650568  0.23973919    -0.20400
F1456       F  0.98590166  0.97803666  0.21281577    -0.23100
C1457       C  0.92549238  0.02343975  0.33088134    -0.06000
C1458       C  0.89616462  0.01349019  0.32537655     0.00000
C1459       C  0.87718865  0.00964035  0.35062257    -0.08600
C1460       C  0.88904558  0.01408499  0.37918617    -0.06000
C1461       C  0.91811614  0.02361837  0.38424130     0.00000
C1462       C  0.93672253  0.02871207  0.35971267    -0.08500
C1463       C  0.96866056  0.03875967  0.36391649     0.61900
H1464       H  0.94004099  0.02766676  0.31271296     0.12600
H1465       H  0.87504005  0.01017748  0.39824315     0.12600
C1466       C  0.84441256  0.00066172  0.35067362     0.62100
F1467       F  0.98374988  0.04005888  0.33737896    -0.23100
F1468       F  0.98352342  0.01911553  0.38245334    -0.20400
F1469       F  0.96927390  0.06678299  0.37621559    -0.20100
F1470       F  0.84176002  0.97328567  0.36447001    -0.20100
F1471       F  0.83068381  0.99881891  0.32342718    -0.20400
F1472       F  0.82865584  0.02123536  0.36680985    -0.23100
C1473       C  0.86186569  0.07446383  0.23093033    -0.06000
C1474       C  0.83951953  0.05691659  0.24381417     0.00000
C1475       C  0.81176656  0.06990804  0.24993675    -0.08600
C1476       C  0.80796646  0.10056502  0.24477572    -0.06000
C1477       C  0.83112008  0.11828864  0.23388758     0.00000
C1478       C  0.85797874  0.10496436  0.22552417    -0.08500
C1479       C  0.88264798  0.12316974  0.21183540     0.61900
H1480       H  0.88339103  0.06479080  0.22738395     0.12600
H1481       H  0.78729205  0.11121182  0.25044390     0.12600
C1482       C  0.78674108  0.05146273  0.26267399     0.62100
F1483       F  0.90646645  0.10567941  0.20391345    -0.23100
F1484       F  0.89259661  0.14416432  0.23183866    -0.20400
F1485       F  0.87209642  0.13736718  0.18658870    -0.20100
F1486       F  0.79485788  0.04030197  0.29018252    -0.20100
F1487       F  0.78048119  0.02810254  0.24386722    -0.20400
F1488       F  0.76115240  0.06798162  0.26597001    -0.23100
C1489       C  0.94085334  0.27537706  0.34437516    -0.06000
C1490       C  0.96118850  0.25338045  0.33689231     0.00000
C1491       C  0.95159196  0.22927426  0.31906242    -0.08600
C1492       C  0.92183335  0.22868499  0.30889300    -0.06000
C1493       C  0.90127038  0.25084629  0.31644065     0.00000
C1494       C  0.91105619  0.27454699  0.33520653    -0.08500
C1495       C  0.89071803  0.29896218  0.34650049     0.61900
H1496       H  0.94861662  0.29335566  0.35823153     0.12600
H1497       H  0.91445986  0.21074101  0.29477419     0.12600
C1498       C  0.97204580  0.20364763  0.31170548     0.62100
F1499       F  0.90469751  0.31699595  0.36712846    -0.23100
F1500       F  0.86636143  0.28650601  0.36025759    -0.20400
F1501       F  0.88164393  0.31701991  0.32321849    -0.20100
F1502       F  0.98563356  0.19286643  0.33720030    -0.20100
F1503       F  0.99340936  0.21307207  0.29207234    -0.20400
F1504       F  0.95675950  0.18036855  0.29868615    -0.23100
C1505       C  0.62586083  0.27318314  0.13800159    -0.06000
C1506       C  0.63311885  0.26431436  0.16677689     0.00000
C1507       C  0.61082216  0.25329605  0.18573241    -0.08600
C1508       C  0.58164578  0.25043026  0.17458258    -0.06000
C1509       C  0.57458328  0.25780952  0.14509581     0.00000
C1510       C  0.59694121  0.27042086  0.12672053    -0.08500
C1511       C  0.59240585  0.28100301  0.09503886     0.61900
H1512       H  0.64325849  0.28170918  0.12384454     0.12600
H1513       H  0.56452768  0.24072261  0.18825622     0.12600
C1514       C  0.61834292  0.24347890  0.21711907     0.62100
F1515       F  0.60231104  0.30997989  0.09242750    -0.23100
F1516       F  0.56332238  0.28050011  0.08590258    -0.20400
F1517       F  0.60867738  0.26333152  0.07629365    -0.20100
F1518       F  0.63053039  0.26700448  0.23259326    -0.20100
F1519       F  0.63858269  0.22047471  0.21647821    -0.20400
F1520       F  0.59354394  0.23370956  0.23214520    -0.23100
C1521       C  0.04119014  0.32266134  0.91836384    -0.06000
C1522       C  0.01318062  0.30955513  0.92199960     0.00000
C1523       C  0.99267679  0.32267287  0.94148000    -0.08600
C1524       C  0.99900362  0.35084996  0.95300861    -0.06000
C1525       C  0.02593360  0.36521481  0.94728760     0.00000
C1526       C  0.04798599  0.35051857  0.93085369    -0.08500
C1527       C  0.07777408  0.36502503  0.92527216     0.61900
H1528       H  0.05686698  0.31201855  0.90388552     0.12600
H1529       H  0.98255522  0.36197408  0.96630414     0.12600
C1530       C  0.96356208  0.30804899  0.94969634     0.62100
F1531       F  0.09587082  0.34733431  0.90822297    -0.23100
F1532       F  0.09208984  0.37015496  0.95201160    -0.20400
F1533       F  0.07369057  0.39174800  0.91054339    -0.20100
F1534       F  0.96362215  0.27790638  0.94402118    -0.20100
F1535       F  0.94063826  0.32123105  0.93390167    -0.20400
F1536       F  0.95855486  0.31156431  0.97967807    -0.23100
C1537       C  0.99758772  0.20353261  0.93838560    -0.06000
C1538       C  0.99841351  0.20428546  0.90730062     0.00000
C1539       C  0.00020929  0.17721550  0.89134923    -0.08600
C1540       C  0.00070038  0.15032164  0.90731346    -0.06000
C1541       C  0.99877928  0.14952060  0.93824316     0.00000
C1542       C  0.99750487  0.17640860  0.95422895    -0.08500
C1543       C  0.99667457  0.17628208  0.98781172     0.61900
H1544       H  0.99640378  0.22438424  0.95011651     0.12600
H1545       H  0.00198677  0.12942129  0.89565707     0.12600
C1546       C  0.00154121  0.17626279  0.85764970     0.62100
F1547       F  0.99681340  0.20475301  0.99917016    -0.23100
F1548       F  0.02120717  0.16145390  0.99903661    -0.20400
F1549       F  0.97124120  0.16211280  0.99729965    -0.20100
F1550       F  0.02243015  0.19607506  0.84728263    -0.20100
F1551       F  0.97418497  0.18323862  0.84549041    -0.20400
F1552       F  0.00922878  0.14836678  0.84762985    -0.23100
C1553       C  0.10778356  0.27716164  0.83101582    -0.06000
C1554       C  0.12319882  0.25208070  0.84148124     0.00000
C1555       C  0.10799775  0.23071958  0.85870595    -0.08600
C1556       C  0.07747885  0.23464350  0.86382847    -0.06000
C1557       C  0.06165640  0.25918016  0.85246170     0.00000
C1558       C  0.07730918  0.28135965  0.83636608    -0.08500
C1559       C  0.06263729  0.30980611  0.82542398     0.61900
H1560       H  0.11988693  0.29344375  0.81814174     0.12600
H1561       H  0.06568496  0.21841972  0.87701460     0.12600
C1562       C  0.12417039  0.20452456  0.87255555     0.62100
F1563       F  0.08339325  0.33082780  0.81702184    -0.23100
F1564       F  0.04567861  0.32214680  0.84749040    -0.20400
F1565       F  0.04494165  0.30389652  0.80102576    -0.20100
F1566       F  0.14871669  0.21439957  0.88829796    -0.20100
F1567       F  0.13323939  0.18548094  0.85064173    -0.20400
F1568       F  0.10632183  0.18874547  0.89185623    -0.23100
C1569       C  0.28413911  0.34310544  0.91218925    -0.06000
C1570       C  0.26041536  0.32398137  0.90477328     0.00000
C1571       C  0.24082622  0.31497301  0.92776807    -0.08600
C1572       C  0.24487091  0.32698999  0.95634848    -0.06000
C1573       C  0.26675783  0.34831697  0.96262645     0.00000
C1574       C  0.28733006  0.35579134  0.94042230    -0.08500
C1575       C  0.31062588  0.37941964  0.94535665     0.61900
H1576       H  0.29943679  0.34973542  0.89507203     0.12600
H1577       H  0.22922963  0.32174872  0.97365316     0.12600
C1578       C  0.21514407  0.29367499  0.92257438     0.62100
F1579       F  0.33049746  0.38115262  0.92222817    -0.23100
F1580       F  0.32656929  0.37330789  0.97098492    -0.20400
F1581       F  0.29665231  0.40648992  0.94755516    -0.20100
F1582       F  0.22555820  0.26728101  0.91122050    -0.20100
F1583       F  0.19485226  0.30626723  0.90305607    -0.20400
F1584       F  0.20031424  0.28706183  0.94852225    -0.23100
C1585       C  0.23617328  0.18786190  0.62055593    -0.06000
C1586       C  0.26178790  0.18084053  0.63689856     0.00000
C1587       C  0.28751765  0.17215152  0.62143112    -0.08600
C1588       C  0.28558578  0.16832248  0.59047821    -0.06000
C1589       C  0.25859040  0.17103221  0.57447358     0.00000
C1590       C  0.23463491  0.18494687  0.58957206    -0.08500
C1591       C  0.20737172  0.19837906  0.57483129     0.61900
H1592       H  0.21729187  0.19697877  0.63206848     0.12600
H1593       H  0.30556959  0.16308884  0.57877618     0.12600
C1594       C  0.31674552  0.16589437  0.63734713     0.62100
F1595       F  0.20469157  0.22759594  0.58372262    -0.23100
F1596       F  0.18233062  0.18298728  0.58348160    -0.20400
F1597       F  0.20867203  0.19862243  0.54447557    -0.20100
F1598       F  0.31214358  0.14711248  0.66124934    -0.20100
F1599       F  0.32908371  0.19220339  0.64713830    -0.20400
F1600       F  0.33701349  0.15239621  0.61897940    -0.23100
C1601       C  0.52128894  0.30630004  0.57975748    -0.06000
C1602       C  0.50910375  0.30199114  0.60796285     0.00000
C1603       C  0.50169188  0.32746186  0.62529338    -0.08600
C1604       C  0.50312367  0.35542878  0.61194488    -0.06000
C1605       C  0.51352912  0.35962282  0.58322301     0.00000
C1606       C  0.52405771  0.33490524  0.56710783    -0.08500
C1607       C  0.53695732  0.33845215  0.53636774     0.61900
H1608       H  0.52733629  0.28695137  0.56709242     0.12600
H1609       H  0.49596267  0.37462303  0.62438747     0.12600
C1610       C  0.49162281  0.32774265  0.65757865     0.62100
F1611       F  0.54324560  0.31132815  0.52366678    -0.23100
F1612       F  0.56308130  0.35449289  0.53812931    -0.20400
F1613       F  0.51703646  0.35315230  0.51797721    -0.20100
F1614       F  0.50741560  0.34915813  0.67299444    -0.20100
F1615       F  0.49587535  0.30144635  0.67268223    -0.20400
F1616       F  0.46185137  0.33494557  0.65847073    -0.23100
C1617       C  0.51884077  0.16503712  0.61039377    -0.06000
C1618       C  0.51050889  0.18920157  0.59246295     0.00000
C1619       C  0.49982670  0.18398955  0.56341720    -0.08600
C1620       C  0.49541351  0.15444791  0.55405216    -0.06000
C1621       C  0.50151976  0.13027492  0.57300770     0.00000
C1622       C  0.51422582  0.13563498  0.60145708    -0.08500
C1623       C  0.52144245  0.11065251  0.62318675     0.61900
H1624       H  0.52617874  0.16951052  0.63285513     0.12600
H1625       H  0.48681560  0.15003318  0.53200958     0.12600
C1626       C  0.49249148  0.20977901  0.54295547     0.62100
F1627       F  0.52764365  0.12116529  0.65135537    -0.23100
F1628       F  0.54609978  0.09544561  0.61367500    -0.20400
F1629       F  0.49762109  0.09138828  0.62531541    -0.20100
F1630       F  0.51677522  0.22847259  0.54112576    -0.20100
F1631       F  0.46873730  0.22545231  0.55387020    -0.20400
F1632       F  0.48528645  0.20032756  0.51464549    -0.23100
C1633       C  0.44403690  0.24326362  0.69572342    -0.06000
C1634       C  0.44475727  0.23615523  0.66527860     0.00000
C1635       C  0.41686519  0.23448740  0.64924366    -0.08600
C1636       C  0.39055559  0.23909937  0.66476886    -0.06000
C1637       C  0.39026163  0.24623684  0.69470424     0.00000
C1638       C  0.41722881  0.24852435  0.71065370    -0.08500
C1639       C  0.41756128  0.25644730  0.74326432     0.61900
H1640       H  0.46460880  0.24622516  0.70772530     0.12600
H1641       H  0.36932368  0.23706305  0.65352281     0.12600
C1642       C  0.41311204  0.22733093  0.61613416     0.62100
F1643       F  0.44590986  0.25562428  0.75529889    -0.23100
F1644       F  0.40016197  0.23659042  0.75886798    -0.20400
F1645       F  0.40654091  0.28481245  0.74675000    -0.20100
F1646       F  0.41796192  0.19749294  0.61141676    -0.20100
F1647       F  0.43177002  0.24403311  0.59869190    -0.20400
F1648       F  0.38467121  0.23329977  0.60586195    -0.23100
C1649       C  0.24183309  0.81676239  0.93622933    -0.06000
C1650       C  0.24227399  0.84816142  0.93827283     0.00000
C1651       C  0.24146630  0.86470593  0.91073118    -0.08600
C1652       C  0.23851498  0.84926965  0.88377228    -0.06000
C1653       C  0.23815434  0.81842246  0.88226689     0.00000
C1654       C  0.23979917  0.80170674  0.90880114    -0.08500
C1655       C  0.23855482  0.76806206  0.90803284     0.61900
H1656       H  0.24393029  0.80354414  0.95606134     0.12600
H1657       H  0.23656746  0.86143642  0.86304226     0.12600
C1658       C  0.24139620  0.89853990  0.90793041     0.62100
F1659       F  0.23901729  0.75569821  0.93620212    -0.23100
F1660       F  0.26261320  0.75721504  0.89280797    -0.20400
F1661       F  0.21270466  0.75910674  0.89390774    -0.20100
F1662       F  0.26026235  0.91202391  0.92786668    -0.20100
F1663       F  0.21291376  0.90885926  0.91162822    -0.20400
F1664       F  0.25058311  0.90768736  0.88011773    -0.23100
C1665       C  0.31465493  0.93156367  0.01861846    -0.06000
C1666       C  0.31274869  0.90309579  0.00616950     0.00000
C1667       C  0.33958970  0.88708228  0.00151775    -0.08600
C1668       C  0.36681208  0.90130638  0.00702357    -0.06000
C1669       C  0.36898034  0.92997845  0.01889080     0.00000
C1670       C  0.34216535  0.94525460  0.02550783    -0.08500
C1671       C  0.34208609  0.97598917  0.03921082     0.61900
H1672       H  0.29416407  0.94332357  0.02247493     0.12600
H1673       H  0.38698854  0.88922566  0.00239099     0.12600
C1674       C  0.34198967  0.85494314  0.99139364     0.62100
F1675       F  0.31363532  0.98690315  0.04248639    -0.23100
F1676       F  0.35736796  0.99569634  0.02135830    -0.20400
F1677       F  0.35519332  0.97484054  0.06705613    -0.20100
F1678       F  0.35244462  0.85451414  0.96270967    -0.20100
F1679       F  0.31583367  0.83921514  0.99233844    -0.20400
F1680       F  0.36196778  0.83996448  0.00955682    -0.23100
C1681       C  0.18931490  0.91630852  0.03505702    -0.06000
C1682       C  0.20512290  0.92475115  0.00988814     0.00000
C1683       C  0.19345277  0.94772125  0.99166132    -0.08600
C1684       C  0.16439905  0.95779910  0.99640670    -0.06000
C1685       C  0.14666251  0.94668945  0.01950809     0.00000
C1686       C  0.16040634  0.92692139  0.04048463    -0.08500
C1687       C  0.14443105  0.91493159  0.06730906     0.61900
H1688       H  0.19888069  0.89936499  0.04924302     0.12600
H1689       H  0.15542695  0.97437720  0.98130420     0.12600
C1690       C  0.21075285  0.96263723  0.96713773     0.62100
F1691       F  0.16254446  0.89745781  0.08519265    -0.23100
F1692       F  0.12121316  0.89757507  0.05761787    -0.20400
F1693       F  0.13420536  0.93799823  0.08447238    -0.20100
F1694       F  0.19673829  0.95762576  0.94023946    -0.20100
F1695       F  0.23968329  0.95279806  0.96576318    -0.20400
F1696       F  0.21154236  0.99289442  0.97209011    -0.23100
C1697       C  0.25820633  0.83564334  0.10574619    -0.06000
C1698       C  0.22921432  0.82866551  0.11414937     0.00000
C1699       C  0.20614998  0.83068681  0.09236143    -0.08600
C1700       C  0.21327302  0.84003180  0.06318758    -0.06000
C1701       C  0.24243628  0.84715765  0.05493647     0.00000
C1702       C  0.26538572  0.84419464  0.07662818    -0.08500
C1703       C  0.29771517  0.84822526  0.06907027     0.61900
H1704       H  0.27567044  0.83338275  0.12225088     0.12600
H1705       H  0.19594072  0.84223024  0.04652524     0.12600
C1706       C  0.17405535  0.82393024  0.09982075     0.62100
F1707       F  0.31642612  0.84110856  0.09258531    -0.23100
F1708       F  0.30309357  0.87733306  0.06147167    -0.20400
F1709       F  0.30460013  0.82974561  0.04594900    -0.20100
F1710       F  0.16582063  0.83988313  0.12448831    -0.20100
F1711       F  0.17062031  0.79393323  0.10544385    -0.20400
F1712       F  0.15494006  0.83146533  0.07676471    -0.23100
C1713       C  0.34838520  0.89609338  0.24111845    -0.06000
C1714       C  0.31739459  0.89507905  0.23897990     0.00000
C1715       C  0.30109554  0.92192993  0.24175115    -0.08600
C1716       C  0.31670662  0.94890046  0.24568173    -0.06000
C1717       C  0.34776168  0.94983454  0.24671186     0.00000
C1718       C  0.36390866  0.92275892  0.24533264    -0.08500
C1719       C  0.39754022  0.92074450  0.24665341     0.61900
H1720       H  0.36079789  0.87562946  0.23905192     0.12600
H1721       H  0.30480235  0.96974277  0.24628674     0.12600
C1722       C  0.26747241  0.92235908  0.24034984     0.62100
F1723       F  0.40610269  0.89626688  0.26334260    -0.23100
F1724       F  0.41050543  0.94525564  0.25954449    -0.20400
F1725       F  0.40828729  0.91763347  0.21825524    -0.20100
F1726       F  0.25610509  0.90201292  0.26032892    -0.20100
F1727       F  0.25789612  0.91537341  0.21202193    -0.20400
F1728       F  0.25622907  0.95000132  0.24727923    -0.23100
C1729       C  0.19133478  0.60404033  0.23723859    -0.06000
C1730       C  0.17977722  0.62112804  0.26020967     0.00000
C1731       C  0.15807098  0.60884800  0.27891363    -0.08600
C1732       C  0.14901270  0.57928551  0.27436950    -0.06000
C1733       C  0.16088926  0.56162142  0.25170857     0.00000
C1734       C  0.18201135  0.57456234  0.23221732    -0.08500
C1735       C  0.19472347  0.55818425  0.20590566     0.61900
H1736       H  0.20805664  0.61401111  0.22325296     0.12600
H1737       H  0.13269378  0.56962415  0.28894866     0.12600
C1738       C  0.14476827  0.62703314  0.30361079     0.62100
F1739       F  0.20646735  0.57776379  0.18533934    -0.23100
F1740       F  0.17300102  0.54185154  0.19155774    -0.20400
F1741       F  0.21725233  0.53957719  0.21539094    -0.20100
F1742       F  0.13124639  0.65201740  0.29174488    -0.20100
F1743       F  0.16687421  0.63569326  0.32321837    -0.20400
F1744       F  0.12373400  0.61116048  0.31927730    -0.23100
C1745       C  0.05511222  0.73115924  0.17786188    -0.06000
C1746       C  0.04933101  0.75652122  0.16046876     0.00000
C1747       C  0.07160139  0.77860679  0.15825112    -0.08600
C1748       C  0.09910260  0.77405577  0.17254609    -0.06000
C1749       C  0.10588613  0.74757060  0.18774135     0.00000
C1750       C  0.08312358  0.72581486  0.19109142    -0.08500
C1751       C  0.08840408  0.69629333  0.20686725     0.61900
H1752       H  0.03792498  0.71438567  0.17905547     0.12600
H1753       H  0.11625078  0.79076465  0.17055571     0.12600
C1754       C  0.06773850  0.80539200  0.13833443     0.62100
F1755       F  0.06405741  0.67762909  0.20479401    -0.23100
F1756       F  0.09407167  0.70102012  0.23665024    -0.20400
F1757       F  0.11215709  0.68182023  0.19430143    -0.20100
F1758       F  0.04261316  0.82081892  0.14613667    -0.20100
F1759       F  0.06541784  0.79577176  0.10946916    -0.20400
F1760       F  0.09156296  0.82474920  0.14010826    -0.23100
C1761       C  0.02210156  0.69003042  0.06971349    -0.06000
C1762       C  0.99639595  0.70717479  0.07410807     0.00000
C1763       C  0.96931620  0.69629225  0.06140357    -0.08600
C1764       C  0.96757326  0.66631478  0.05327050    -0.06000
C1765       C  0.99240358  0.64776416  0.05423612     0.00000
C1766       C  0.02061047  0.66035363  0.06028328    -0.08500
C1767       C  0.04906975  0.64287849  0.05626657     0.61900
H1768       H  0.04355159  0.69960024  0.07440733     0.12600
H1769       H  0.94642335  0.65729491  0.04598116     0.12600
C1770       C  0.94157381  0.71461220  0.05563746     0.62100
F1771       F  0.07398994  0.66065126  0.05912834    -0.23100
F1772       F  0.04934065  0.63058681  0.02826940    -0.20400
F1773       F  0.05111299  0.62057594  0.07735298    -0.20100
F1774       F  0.94619407  0.74461789  0.05868742    -0.20100
F1775       F  0.91935544  0.70568033  0.07461617    -0.20400
F1776       F  0.93190293  0.71005186  0.02680222    -0.23100
C1777       C  0.01967091  0.82777842  0.07941711    -0.06000
C1778       C  0.99639254  0.81875735  0.09776154     0.00000
C1779       C  0.97716681  0.84085282  0.10896240    -0.08600
C1780       C  0.98401498  0.87095785  0.10405586    -0.06000
C1781       C  0.00844202  0.88020849  0.08715169     0.00000
C1782       C  0.02669324  0.85790739  0.07463004    -0.08500
C1783       C  0.05442280  0.86543783  0.05767948     0.61900
H1784       H  0.03311462  0.81077394  0.06945674     0.12600
H1785       H  0.96965273  0.88768452  0.11320698     0.12600
C1786       C  0.94769459  0.83324210  0.12289949     0.62100
F1787       F  0.06967808  0.84043166  0.04879658    -0.23100
F1788       F  0.07284336  0.88141673  0.07623312    -0.20400
F1789       F  0.04741339  0.88185181  0.03256250    -0.20100
F1790       F  0.95192159  0.82032659  0.15034080    -0.20100
F1791       F  0.93238653  0.81431226  0.10432164    -0.20400
F1792       F  0.93012064  0.85805299  0.12680613    -0.23100
C1793       C  0.21278306  0.66317059  0.55905056    -0.06000
C1794       C  0.23801898  0.67283790  0.54391299     0.00000
C1795       C  0.25731095  0.69343904  0.55778860    -0.08600
C1796       C  0.25415503  0.69895392  0.58815359    -0.06000
C1797       C  0.23101499  0.68618725  0.60440235     0.00000
C1798       C  0.20911056  0.66914962  0.58942976    -0.08500
C1799       C  0.18335917  0.65541785  0.60593374     0.61900
H1800       H  0.19755148  0.64841425  0.54772561     0.12600
H1801       H  0.27002375  0.71326460  0.59931871     0.12600
C1802       C  0.28185746  0.70927337  0.54135708     0.62100
F1803       F  0.16574808  0.63801998  0.58767116    -0.23100
F1804       F  0.16582372  0.67750610  0.61732742    -0.20400
F1805       F  0.19394274  0.63780913  0.62891310    -0.20100
F1806       F  0.27913738  0.70584792  0.51100392    -0.20100
F1807       F  0.30907135  0.69845138  0.55074055    -0.20400
F1808       F  0.28065096  0.73934503  0.54725142    -0.23100
C1809       C  0.31133607  0.56757137  0.52129742    -0.06000
C1810       C  0.30962088  0.59722298  0.51088962     0.00000
C1811       C  0.33699833  0.61316037  0.50666811    -0.08600
C1812       C  0.36375927  0.59808674  0.51092930    -0.06000
C1813       C  0.36513681  0.56847181  0.51978873     0.00000
C1814       C  0.33867041  0.55281385  0.52554273    -0.08500
C1815       C  0.33928941  0.52037587  0.53478501     0.61900
H1816       H  0.29130959  0.55556260  0.52609668     0.12600
H1817       H  0.38441391  0.60971042  0.50664818     0.12600
C1818       C  0.34128270  0.64537268  0.49645201     0.62100
F1819       F  0.31104427  0.50868731  0.53758518    -0.23100
F1820       F  0.35370806  0.51742428  0.56183552    -0.20400
F1821       F  0.35406112  0.50398613  0.51375848    -0.20100
F1822       F  0.31620467  0.66249357  0.49503062    -0.20100
F1823       F  0.35376991  0.64536574  0.46856798    -0.20400
F1824       F  0.36068591  0.65947961  0.51575725    -0.23100
C1825       C  0.14875842  0.57619720  0.51911481    -0.06000
C1826       C  0.13248139  0.58263456  0.49307241     0.00000
C1827       C  0.14728874  0.59606023  0.46884186    -0.08600
C1828       C  0.17759337  0.60339329  0.47204864    -0.06000
C1829       C  0.19385909  0.59699957  0.49809479     0.00000
C1830       C  0.17933602  0.58258020  0.52195748    -0.08500
C1831       C  0.19571118  0.57342830  0.55019519     0.61900
H1832       H  0.13731776  0.56533389  0.53717434     0.12600
H1833       H  0.18895572  0.61445568  0.45406264     0.12600
C1834       C  0.13109150  0.60363075  0.44009505     0.62100
F1835       F  0.17633303  0.56472101  0.57220504    -0.23100
F1836       F  0.21253647  0.59659750  0.56115183    -0.20400
F1837       F  0.21405926  0.54972464  0.54433041    -0.20100
F1838       F  0.10654816  0.62088637  0.44598909    -0.20100
F1839       F  0.12214491  0.57786618  0.42610786    -0.20400
F1840       F  0.14892712  0.61929159  0.42067496    -0.23100
C1841       C  0.24651265  0.68539518  0.43600868    -0.06000
C1842       C  0.24895515  0.65443207  0.43751344     0.00000
C1843       C  0.25345861  0.63815967  0.41108013    -0.08600
C1844       C  0.25909068  0.65374060  0.38476346    -0.06000
C1845       C  0.25877257  0.68481586  0.38355989     0.00000
C1846       C  0.25086336  0.70097578  0.40919893    -0.08500
C1847       C  0.24652466  0.73435232  0.40822100     0.61900
H1848       H  0.24271998  0.69742560  0.45632367     0.12600
H1849       H  0.26375580  0.64139185  0.36479109     0.12600
C1850       C  0.25282456  0.60448407  0.40933386     0.62100
F1851       F  0.23496691  0.74488357  0.43442862    -0.23100
F1852       F  0.22696921  0.74175201  0.38553031    -0.20400
F1853       F  0.27338559  0.74833150  0.40357652    -0.20100
F1854       F  0.24183910  0.59117235  0.43460978    -0.20100
F1855       F  0.28119821  0.59412318  0.40450412    -0.20400
F1856       F  0.23478702  0.59591264  0.38589173    -0.23100
C1857       C  0.61236823  0.51641861  0.18042605    -0.06000
C1858       C  0.60176151  0.49371515  0.19892907     0.00000
C1859       C  0.58486196  0.47041586  0.18637503    -0.08600
C1860       C  0.57825777  0.47152257  0.15575381    -0.06000
C1861       C  0.58846261  0.49469021  0.13718053     0.00000
C1862       C  0.60663197  0.51730193  0.14984285    -0.08500
C1863       C  0.62049790  0.54234186  0.13179843     0.61900
H1864       H  0.62550148  0.53388070  0.19028729     0.12600
H1865       H  0.56455288  0.45424135  0.14622351     0.12600
C1866       C  0.57410158  0.44431474  0.20483699     0.62100
F1867       F  0.64020058  0.55916010  0.14845213    -0.23100
F1868       F  0.59861802  0.56126854  0.12130692    -0.20400
F1869       F  0.63616633  0.53071137  0.10838500    -0.20100
F1870       F  0.55205881  0.45355587  0.22359808    -0.20100
F1871       F  0.59723789  0.43246732  0.22136511    -0.20400
F1872       F  0.56254682  0.42189633  0.18732615    -0.23100
C1873       C  0.60227113  0.52237463  0.33576791    -0.06000
C1874       C  0.59360368  0.50153302  0.31381429     0.00000
C1875       C  0.57280686  0.47906532  0.32242478    -0.08600
C1876       C  0.56045781  0.48020792  0.35106458    -0.06000
C1877       C  0.56793367  0.50243602  0.37138555     0.00000
C1878       C  0.58899259  0.52411352  0.36361921    -0.08500
C1879       C  0.59864742  0.54819307  0.38522868     0.61900
H1880       H  0.62095256  0.53674009  0.33212282     0.12600
H1881       H  0.54443809  0.46365820  0.35791160     0.12600
C1882       C  0.56251783  0.45397370  0.30232837     0.62100
F1883       F  0.62036217  0.56648712  0.37357131    -0.23100
F1884       F  0.60985934  0.53533670  0.41090538    -0.20400
F1885       F  0.57470367  0.56588596  0.39207999    -0.20100
F1886       F  0.58575752  0.44198505  0.28679303    -0.20100
F1887       F  0.54105510  0.46447729  0.28292122    -0.20400
F1888       F  0.55001816  0.43096108  0.31842872    -0.23100
C1889       C  0.66650010  0.43689670  0.22811187    -0.06000
C1890       C  0.67261912  0.45201077  0.25458088     0.00000
C1891       C  0.69213830  0.43875937  0.27558415    -0.08600
C1892       C  0.70214692  0.40963483  0.27074764    -0.06000
C1893       C  0.69437617  0.39335943  0.24517279     0.00000
C1894       C  0.67667300  0.40780088  0.22290904    -0.08500
C1895       C  0.66736498  0.39285175  0.19409160     0.61900
H1896       H  0.65207377  0.44751667  0.21199088     0.12600
H1897       H  0.71632236  0.39954324  0.28751971     0.12600
C1898       C  0.70332719  0.45426682  0.30332298     0.62100
F1899       F  0.65017765  0.41122682  0.17618484    -0.23100
F1900       F  0.65069306  0.36778738  0.20017966    -0.20400
F1901       F  0.69220419  0.38522965  0.17814564    -0.20100
F1902       F  0.69106973  0.44083910  0.32797725    -0.20100
F1903       F  0.69668435  0.48420186  0.30358048    -0.20400
F1904       F  0.73385901  0.45170155  0.30517141    -0.23100
C1905       C  0.76067875  0.32040279  0.42257618    -0.06000
C1906       C  0.76919912  0.34962767  0.42905139     0.00000
C1907       C  0.78368781  0.36684659  0.40713567    -0.08600
C1908       C  0.78694082  0.35515086  0.37856911    -0.06000
C1909       C  0.77623611  0.32694265  0.37153461     0.00000
C1910       C  0.76414515  0.30863509  0.39396406    -0.08500
C1911       C  0.75409348  0.27724831  0.38719023     0.61900
H1912       H  0.74964678  0.30754010  0.43958323     0.12600
H1913       H  0.79639462  0.36857308  0.36103336     0.12600
C1914       C  0.79390043  0.39815170  0.41331598     0.62100
F1915       F  0.74415941  0.26262896  0.41227728    -0.23100
F1916       F  0.77754624  0.26130985  0.37590124    -0.20400
F1917       F  0.73123689  0.27788313  0.36652143    -0.20100
F1918       F  0.81161355  0.39841412  0.43847506    -0.20100
F1919       F  0.76940090  0.41589435  0.41729148    -0.20400
F1920       F  0.81021438  0.40987607  0.39019972    -0.23100
C1921       C  0.68289986  0.43045296  0.48822240    -0.06000
C1922       C  0.68820701  0.39980788  0.48448297     0.00000
C1923       C  0.66292877  0.38040033  0.48164431    -0.08600
C1924       C  0.63458501  0.39208532  0.48621985    -0.06000
C1925       C  0.63007878  0.42208238  0.49149365     0.00000
C1926       C  0.65427671  0.44182368  0.49226824    -0.08500
C1927       C  0.64977500  0.47463597  0.49825438     0.61900
H1928       H  0.70102199  0.44597749  0.48772871     0.12600
H1929       H  0.61539168  0.37752452  0.48524513     0.12600
C1930       C  0.66298320  0.34721811  0.47474366     0.62100
F1931       F  0.67642982  0.48974990  0.50072613    -0.27900
F1932       F  0.63467262  0.47809680  0.52453148    -0.20400
F1933       F  0.63348895  0.48733880  0.47536518    -0.20100
F1934       F  0.65374300  0.33167853  0.49953652    -0.20100
F1935       F  0.68977028  0.33581556  0.46615763    -0.20400
F1936       F  0.64308946  0.34176858  0.45182204    -0.23100
C1937       C  0.82523016  0.39556707  0.51548778    -0.06000
C1938       C  0.80258343  0.41294655  0.50229916     0.00000
C1939       C  0.80983983  0.44264967  0.49327769    -0.08600
C1940       C  0.83961483  0.45228297  0.49587144    -0.06000
C1941       C  0.86207996  0.43395776  0.50720062     0.00000
C1942       C  0.85483777  0.40535200  0.51766520    -0.08500
C1943       C  0.87857636  0.38509448  0.53051950     0.61900
H1944       H  0.81981231  0.37364903  0.52365755     0.12600
H1945       H  0.84585923  0.47440535  0.48874801     0.12600
C1946       C  0.78721670  0.46492661  0.48141065     0.62100
F1947       F  0.86714838  0.35790722  0.53925260    -0.23100
F1948       F  0.89155074  0.39835067  0.55499301    -0.20400
F1949       F  0.90003455  0.38004087  0.50949508    -0.20100
F1950       F  0.76972649  0.47458041  0.50436680    -0.20100
F1951       F  0.76968771  0.45267464  0.45949018    -0.20400
F1952       F  0.80067922  0.48970691  0.46915838    -0.23100
C1953       C  0.31218116  0.56177713  0.73647045    -0.06000
C1954       C  0.34288256  0.56071408  0.74342985     0.00000
C1955       C  0.35866832  0.58856078  0.74481206    -0.08600
C1956       C  0.34302059  0.61502455  0.73997340    -0.06000
C1957       C  0.31270492  0.61566895  0.73406932     0.00000
C1958       C  0.29680055  0.58877190  0.73211320    -0.08500
C1959       C  0.26349284  0.58879771  0.72691731     0.61900
H1960       H  0.29955214  0.54156815  0.73503225     0.12600
H1961       H  0.35470497  0.63606405  0.74175564     0.12600
C1962       C  0.39148812  0.59378084  0.75209557     0.62100
F1963       F  0.25186182  0.56034587  0.72632814    -0.23100
F1964       F  0.25693206  0.60235773  0.70007202    -0.20400
F1965       F  0.24982042  0.60416181  0.74941013    -0.20100
F1966       F  0.40845361  0.56889137  0.75650079    -0.20100
F1967       F  0.39361334  0.61051226  0.77765178    -0.20400
F1968       F  0.40415459  0.60973643  0.72915274    -0.23100
C1969       C  0.36607510  0.42170437  0.74884320    -0.06000
C1970       C  0.34575832  0.44392690  0.75685807     0.00000
C1971       C  0.31826835  0.43459127  0.76960756    -0.08600
C1972       C  0.31377186  0.40400594  0.77554136    -0.06000
C1973       C  0.33459977  0.38226105  0.76813939     0.00000
C1974       C  0.36127308  0.39130025  0.75436192    -0.08500
C1975       C  0.38509830  0.36918578  0.74578348     0.61900
H1976       H  0.38617213  0.42823747  0.73773797     0.12600
H1977       H  0.29302336  0.39650263  0.78485098     0.12600
C1978       C  0.29271472  0.45556940  0.77585012     0.62100
F1979       F  0.41161728  0.38312255  0.73914832    -0.23100
F1980       F  0.37601731  0.35358176  0.72099904    -0.20400
F1981       F  0.39053228  0.34962512  0.76897059    -0.20100
F1982       F  0.27064475  0.44193485  0.79216356    -0.20100
F1983       F  0.28009283  0.46482738  0.74932857    -0.20400
F1984       F  0.30214659  0.47978078  0.79185370    -0.23100
C1985       C  0.43297093  0.51435954  0.81968547    -0.06000
C1986       C  0.40464931  0.50200492  0.81562729     0.00000
C1987       C  0.38943515  0.49063339  0.84059197    -0.08600
C1988       C  0.40320842  0.49149733  0.86860101    -0.06000
C1989       C  0.43111518  0.50451172  0.87298263     0.00000
C1990       C  0.44651343  0.51609769  0.84805523    -0.08500
C1991       C  0.47697451  0.53023307  0.85114761     0.61900
H1992       H  0.44389750  0.52374755  0.80052454     0.12600
H1993       H  0.39165633  0.48285338  0.88773002     0.12600
C1994       C  0.35824466  0.47862181  0.83800262     0.62100
F1995       F  0.48939358  0.53627989  0.82383625    -0.23100
F1996       F  0.49592216  0.51129771  0.86639509    -0.20400
F1997       F  0.47475923  0.55672008  0.86627824    -0.20100
F1998       F  0.35784979  0.45516805  0.81855946    -0.20100
F1999       F  0.33969173  0.50092777  0.82797373    -0.20400
F2000       F  0.34750362  0.46847271  0.86486240    -0.23100
C2001       C  0.39884069  0.46997257  0.68684557    -0.06000
C2002       C  0.41514339  0.48834493  0.70616202     0.00000
C2003       C  0.44207798  0.50093211  0.69626257    -0.08600
C2004       C  0.45008690  0.49759219  0.66636903    -0.06000
C2005       C  0.43239868  0.48141596  0.64645764     0.00000
C2006       C  0.40734167  0.46590104  0.65712196    -0.08500
C2007       C  0.38922883  0.44603442  0.63684370     0.61900
H2008       H  0.37813525  0.46067919  0.69451106     0.12600
H2009       H  0.46960037  0.50876890  0.65799952     0.12600
C2010       C  0.46136989  0.51934071  0.71675229     0.62100
F2011       F  0.36547336  0.43327142  0.65138822    -0.23100
F2012       F  0.40700125  0.42345995  0.62648897    -0.20400
F2013       F  0.37833108  0.46231344  0.61304204    -0.20100
F2014       F  0.46448663  0.50511028  0.74386738    -0.20100
F2015       F  0.44851390  0.54675528  0.72081261    -0.20400
F2016       F  0.48939082  0.52362749  0.70523050    -0.23100
C2017       C  0.77302833  0.18114663  0.05366347    -0.06000
C2018       C  0.75234831  0.15856812  0.04688579     0.00000
C2019       C  0.73391109  0.14768468  0.07027671    -0.08600
C2020       C  0.73752603  0.15943100  0.09891428    -0.06000
C2021       C  0.75789701  0.18189170  0.10507602     0.00000
C2022       C  0.77575808  0.19333404  0.08219874    -0.08500
C2023       C  0.79702841  0.21886904  0.08784417     0.61900
H2024       H  0.78756501  0.18909630  0.03642511     0.12600
H2025       H  0.72436571  0.15092740  0.11706304     0.12600
C2026       C  0.71000900  0.12425321  0.06654711     0.62100
F2027       F  0.81102152  0.22803729  0.06219722    -0.23100
F2028       F  0.81857761  0.21030175  0.10814492    -0.20400
F2029       F  0.78159576  0.24279112  0.09893442    -0.20100
F2030       F  0.69625286  0.12700593  0.03952084    -0.20100
F2031       F  0.68813753  0.12715747  0.08765393    -0.20400
F2032       F  0.72214800  0.09626599  0.06961403    -0.23100
C2033       C  0.64254614  0.09427663  0.97972802    -0.06000
C2034       C  0.64295057  0.06332928  0.97783360     0.00000
C2035       C  0.67068942  0.04843422  0.97999499    -0.08600
C2036       C  0.69702587  0.06549903  0.98292677    -0.06000
C2037       C  0.69644902  0.09666727  0.98401590     0.00000
C2038       C  0.66833969  0.11119927  0.98325601    -0.08500
C2039       C  0.66312446  0.14421586  0.98718609     0.61900
H2040       H  0.62141133  0.10572841  0.97863768     0.12600
H2041       H  0.71839986  0.05463507  0.98351387     0.12600
C2042       C  0.67257856  0.01483067  0.97969631     0.62100
F2043       F  0.64923072  0.15552271  0.96211701    -0.23100
F2044       F  0.68863166  0.16005174  0.99258070    -0.20400
F2045       F  0.64461038  0.14848452  0.01104524    -0.20100
F2046       F  0.66374784  0.00435009  0.95225292    -0.20100
F2047       F  0.65445194  0.00301139  0.00133756    -0.20400
F2048       F  0.70116934  0.00495708  0.98519982    -0.23100
C2049       C  0.85055263  0.06436793  0.99722455    -0.06000
C2050       C  0.86745359  0.08227146  0.01640429     0.00000
C2051       C  0.85346332  0.10596639  0.03120054    -0.08600
C2052       C  0.82338011  0.11229492  0.02454926    -0.06000
C2053       C  0.80706170  0.09561248  0.00369651     0.00000
C2054       C  0.82052098  0.07060318  0.99070383    -0.08500
C2055       C  0.80326108  0.05117968  0.96930901     0.61900
H2056       H  0.86145179  0.04604115  0.98641055     0.12600
H2057       H  0.81298545  0.13156997  0.03410242     0.12600
C2058       C  0.87071339  0.12514029  0.05285928     0.62100
F2059       F  0.81878160  0.02574889  0.96228221    -0.23100
F2060       F  0.79737581  0.06668386  0.94337894    -0.20400
F2061       F  0.77677780  0.04270581  0.98202396    -0.20100
F2062       F  0.89471501  0.13791709  0.03880366    -0.20100
F2063       F  0.88081156  0.10782124  0.07626695    -0.20400
F2064       F  0.85343637  0.14766749  0.06419790    -0.23100
C2065       C  0.13575452  0.91869176  0.78299021    -0.06000
C2066       C  0.14841386  0.94067600  0.76425636     0.00000
C2067       C  0.16570556  0.93038388  0.73987902    -0.08600
C2068       C  0.17175885  0.89968107  0.73765037    -0.06000
C2069       C  0.16063995  0.87888092  0.75788019     0.00000
C2070       C  0.14205091  0.88835589  0.78074152    -0.08500
C2071       C  0.12760579  0.86625483  0.80181283     0.61900
H2072       H  0.11926884  0.92481841  0.79886783     0.12600
H2073       H  0.18580454  0.89154368  0.72017094     0.12600
C2074       C  0.17820861  0.95071453  0.71596319     0.62100
F2075       F  0.10758192  0.87970855  0.82046137    -0.23100
F2076       F  0.14899518  0.85268704  0.81935589    -0.20400
F2077       F  0.11249341  0.84490819  0.78569958    -0.20100
F2078       F  0.20214836  0.96624049  0.72723746    -0.20100
F2079       F  0.15691858  0.97016514  0.70534986    -0.20400
F2080       F  0.18814960  0.93482010  0.69186196    -0.23100
C2081       C  0.14879673  0.07503932  0.78639434    -0.06000
C2082       C  0.15581822  0.05688651  0.76232560     0.00000
C2083       C  0.17359824  0.06881760  0.73943799    -0.08600
C2084       C  0.18376082  0.09846783  0.74182158    -0.06000
C2085       C  0.17654313  0.11686398  0.76597569     0.00000
C2086       C  0.15835896  0.10465871  0.78873374    -0.08500
C2087       C  0.14800804  0.12243482  0.81524574     0.61900
H2088       H  0.13519545  0.06572702  0.80366620     0.12600
H2089       H  0.19769617  0.10744063  0.72456824     0.12600
C2090       C  0.18165479  0.05076675  0.71240360     0.62100
F2091       F  0.12923002  0.10631716  0.83337839    -0.23100
F2092       F  0.13252249  0.14710124  0.80535073    -0.20400
F2093       F  0.17211200  0.13094780  0.83242103    -0.20100
F2094       F  0.15660238  0.03788465  0.70011928    -0.20100
F2095       F  0.20156945  0.02886729  0.72046358    -0.20400
F2096       F  0.19469684  0.06814600  0.69072354    -0.23100
C2097       C  0.04737585  0.99393194  0.67841851    -0.06000
C2098       C  0.05983865  0.01585413  0.65984970     0.00000
C2099       C  0.07854781  0.03782089  0.67330160    -0.08600
C2100       C  0.08634946  0.03475844  0.70359664    -0.06000
C2101       C  0.07631257  0.01096156  0.72089506     0.00000
C2102       C  0.05458431  0.99169826  0.70876955    -0.08500
C2103       C  0.03874804  0.96823168  0.72698723     0.61900
H2104       H  0.03179212  0.97804305  0.66921988     0.12600
H2105       H  0.10224191  0.04982020  0.71350663     0.12600
C2106       C  0.09131215  0.06399236  0.65617862     0.62100
F2107       F  0.00846469  0.97082440  0.72249766    -0.23100
F2108       F  0.04427408  0.97105790  0.75706339    -0.20400
F2109       F  0.04758111  0.94033972  0.71807156    -0.20100
F2110       F  0.06853930  0.08087289  0.64414519    -0.20100
F2111       F  0.10950295  0.05387422  0.63393924    -0.20400
F2112       F  0.10813604  0.08249190  0.67410859    -0.23100
C2113       C  0.07339107  0.02556498  0.83549865    -0.06000
C2114       C  0.10310842  0.01885525  0.82981542     0.00000
C2115       C  0.12394034  0.01891852  0.85384303    -0.08600
C2116       C  0.11353959  0.02188478  0.88286075    -0.06000
C2117       C  0.08362000  0.02688479  0.88876139     0.00000
C2118       C  0.06319486  0.02976077  0.86468673    -0.08500
C2119       C  0.03045970  0.03513349  0.86985173     0.61900
H2120       H  0.05787011  0.02566206  0.81701549     0.12600
H2121       H  0.12910611  0.02025125  0.90130136     0.12600
C2122       C  0.15727450  0.01558788  0.85062304     0.62100
F2123       F  0.01420639  0.03492518  0.84365455    -0.23100
F2124       F  0.02655699  0.06248095  0.88296058    -0.20400
F2125       F  0.01931113  0.01311610  0.88809076    -0.20100
F2126       F  0.16665625  0.01866747  0.82182158    -0.20100
F2127       F  0.16588001  0.98803509  0.86126717    -0.20400
F2128       F  0.17156825  0.03724324  0.86708639    -0.23100
C2129       C  0.39103190  0.74176242  0.33671667    -0.06000
C2130       C  0.38654291  0.76813148  0.32036886     0.00000
C2131       C  0.41132967  0.78750036  0.31663533    -0.08600
C2132       C  0.43888290  0.78004210  0.33024028    -0.06000
C2133       C  0.44307684  0.75379103  0.34685013     0.00000
C2134       C  0.41881201  0.73374113  0.34904366    -0.08500
C2135       C  0.42258157  0.70266888  0.36154637     0.61900
H2136       H  0.37257611  0.72655953  0.33887977     0.12600
H2137       H  0.45772271  0.79472692  0.32776932     0.12600
C2138       C  0.40914007  0.81596434  0.29851996     0.62100
F2139       F  0.42886094  0.70362131  0.39147987    -0.23100
F2140       F  0.44524312  0.68884489  0.34672787    -0.20400
F2141       F  0.39731998  0.68551874  0.35784511    -0.20100
F2142       F  0.38663866  0.83357209  0.30926345    -0.20100
F2143       F  0.40354340  0.80927096  0.26911846    -0.20400
F2144       F  0.43514949  0.83229423  0.29964875    -0.23100
C2145       C  0.48391091  0.64949956  0.44992153    -0.06000
C2146       C  0.48313824  0.62574695  0.42996514     0.00000
C2147       C  0.48387137  0.63168400  0.39915956    -0.08600
C2148       C  0.48666439  0.66124481  0.38945903    -0.06000
C2149       C  0.48854080  0.68521049  0.40927081     0.00000
C2150       C  0.48733982  0.67915260  0.44009508    -0.08500
C2151       C  0.49219286  0.70347443  0.46244645     0.61900
H2152       H  0.48372335  0.64441935  0.47341473     0.12600
H2153       H  0.48940687  0.66570869  0.36606953     0.12600
C2154       C  0.48214618  0.60690141  0.37652087     0.62100
F2155       F  0.46987324  0.72424501  0.45950558    -0.23100
F2156       F  0.51939617  0.71666137  0.45751504    -0.20400
F2157       F  0.49211913  0.69279510  0.49129409    -0.20100
F2158       F  0.45796626  0.58894566  0.38232804    -0.20100
F2159       F  0.50771068  0.59005344  0.37777582    -0.20400
F2160       F  0.47899220  0.61784725  0.34790727    -0.23100
C2161       C  0.47691738  0.81860408  0.39804928    -0.06000
C2162       C  0.49305818  0.79866758  0.41589352     0.00000
C2163       C  0.50793481  0.80965929  0.44145483    -0.08600
C2164       C  0.50743934  0.84035581  0.44722782    -0.06000
C2165       C  0.49235418  0.86054599  0.42866630     0.00000
C2166       C  0.47627145  0.84934581  0.40381806    -0.08500
C2167       C  0.45903850  0.86953389  0.38289130     0.61900
H2168       H  0.46600131  0.81002304  0.37848776     0.12600
H2169       H  0.51877993  0.84888173  0.46666654     0.12600
C2170       C  0.52340152  0.78903043  0.46325997     0.62100
F2171       F  0.44954651  0.85484333  0.35766268    -0.23100
F2172       F  0.47657318  0.89311948  0.37396796    -0.20400
F2173       F  0.43429047  0.87992287  0.39724018    -0.20100
F2174       F  0.54472866  0.77253678  0.44922689    -0.20100
F2175       F  0.50263130  0.77032348  0.47559470    -0.20400
F2176       F  0.53716239  0.80431530  0.48612176    -0.23100
C2177       C  0.85929116  0.57129002  0.00456230    -0.06000
C2178       C  0.87207323  0.56966583  0.97652793     0.00000
C2179       C  0.85521509  0.57758628  0.95120178    -0.08600
C2180       C  0.82657478  0.58899520  0.95518546    -0.06000
C2181       C  0.81453161  0.59366495  0.98360660     0.00000
C2182       C  0.83011146  0.58121609  0.00849574    -0.08500
C2183       C  0.81762464  0.57636202  0.03938823     0.61900
H2184       H  0.87193497  0.56340995  0.02363622     0.12600
H2185       H  0.81339568  0.59385631  0.93569952     0.12600
C2186       C  0.86775686  0.57500169  0.92020008     0.62100
F2187       F  0.82269437  0.54726295  0.04804886    -0.23100
F2188       F  0.78751872  0.58096553  0.04120507    -0.20400
F2189       F  0.83201802  0.59488175  0.05921075    -0.20100
F2190       F  0.87205537  0.54546622  0.91341054    -0.20100
F2191       F  0.89454849  0.58990331  0.91871049    -0.20400
F2192       F  0.84893848  0.58708156  0.89889892    -0.23100
C2193       C  0.68542842  0.60779187  0.01982145    -0.06000
C2194       C  0.70251686  0.59783573  0.99596167     0.00000
C2195       C  0.68977824  0.57765397  0.97538309    -0.08600
C2196       C  0.66077408  0.56736618  0.98025342    -0.06000
C2197       C  0.64405723  0.57676155  0.00446734     0.00000
C2198       C  0.65629884  0.59755944  0.02449624    -0.08500
C2199       C  0.63825207  0.60975257  0.04984815     0.61900
H2200       H  0.69500203  0.62394630  0.03473114     0.12600
H2201       H  0.65078032  0.55168064  0.96500786     0.12600
C2202       C  0.70595649  0.56724897  0.94793859     0.62100
F2203       F  0.65352876  0.63146595  0.06535702    -0.23100
F2204       F  0.63139606  0.58713397  0.06944231    -0.20400
F2205       F  0.61228922  0.62214107  0.03887336    -0.20100
F2206       F  0.72627639  0.54560582  0.95573931    -0.20100
F2207       F  0.72044802  0.59059495  0.93432921    -0.20400
F2208       F  0.68651232  0.55527247  0.92726522    -0.23100
C2209       C  0.74569326  0.64187470  0.06761307    -0.06000
C2210       C  0.75474970  0.66207598  0.04575993     0.00000
C2211       C  0.76068242  0.69183070  0.05335572    -0.08600
C2212       C  0.75855438  0.70022533  0.08318725    -0.06000
C2213       C  0.75019607  0.67986251  0.10525478     0.00000
C2214       C  0.74279967  0.65029723  0.09734757    -0.08500
C2215       C  0.73312335  0.62736455  0.12014118     0.61900
H2216       H  0.74171333  0.61907703  0.06121352     0.12600
H2217       H  0.76371382  0.72279570  0.08960497     0.12600
C2218       C  0.77011535  0.71422380  0.03019167     0.62100
F2219       F  0.73018777  0.59936747  0.10794974    -0.23100
F2220       F  0.70593286  0.63517931  0.13156459    -0.20400
F2221       F  0.75391777  0.62565384  0.14282691    -0.20100
F2222       F  0.77263491  0.74252163  0.04174990    -0.20100
F2223       F  0.74938371  0.71502843  0.00737946    -0.20400
F2224       F  0.79736645  0.70613931  0.01920366    -0.23100
C2225       C  0.84750548  0.89339809  0.23972558    -0.06000
C2226       C  0.81755381  0.88904936  0.24626728     0.00000
C2227       C  0.80000771  0.91365162  0.25472469    -0.08600
C2228       C  0.81385448  0.94155479  0.25829133    -0.06000
C2229       C  0.84426882  0.94539241  0.25333265     0.00000
C2230       C  0.86126030  0.92113673  0.24319498    -0.08500
C2231       C  0.89386608  0.92436758  0.23629195     0.61900
H2232       H  0.86036058  0.87447042  0.23269812     0.12600
H2233       H  0.80121792  0.96044668  0.26579279     0.12600
C2234       C  0.76682494  0.91067516  0.25919504     0.62100
F2235       F  0.90618435  0.89802198  0.22675043    -0.23100
F2236       F  0.90915877  0.93314498  0.26142333    -0.20400
F2237       F  0.89731520  0.94520386  0.21404045    -0.20100
F2238       F  0.76125765  0.89327968  0.28385821    -0.20100
F2239       F  0.75389210  0.89775593  0.23449036    -0.20400
F2240       F  0.75353640  0.93799810  0.26332509    -0.23100
C2241       C  0.61323523  0.74426733  0.34867811    -0.06000
C2242       C  0.61418661  0.74259467  0.31791754     0.00000
C2243       C  0.58745243  0.74067477  0.30149231    -0.08600
C2244       C  0.56029468  0.74142099  0.31675181    -0.06000
C2245       C  0.55884306  0.74380250  0.34796608     0.00000
C2246       C  0.58650708  0.74385058  0.36439607    -0.08500
C2247       C  0.58979832  0.74573865  0.39817375     0.61900
H2248       H  0.63418778  0.74616746  0.36052049     0.12600
H2249       H  0.54017638  0.73934524  0.30393378     0.12600
C2250       C  0.58765869  0.73844488  0.26793807     0.62100
F2251       F  0.61734873  0.73565022  0.40762584    -0.23100
F2252       F  0.56934262  0.72863065  0.41293532    -0.20400
F2253       F  0.58743374  0.77493187  0.40692718    -0.20100
F2254       F  0.60060864  0.71197882  0.25978850    -0.20100
F2255       F  0.60361351  0.76183432  0.25607103    -0.20400
F2256       F  0.55932017  0.73932270  0.25586169    -0.23100
C2257       C  0.64320774  0.61387716  0.23319559    -0.06000
C2258       C  0.67358534  0.61903665  0.23102736     0.00000
C2259       C  0.69349407  0.59473247  0.23051001    -0.08600
C2260       C  0.68216557  0.56582589  0.23483589    -0.06000
C2261       C  0.65183384  0.56093959  0.23929478     0.00000
C2262       C  0.63172585  0.58518527  0.23604566    -0.08500
C2263       C  0.59813628  0.58250998  0.23647986     0.61900
H2264       H  0.62820328  0.63268123  0.23290419     0.12600
H2265       H  0.69711054  0.54711933  0.23687505     0.12600
C2266       C  0.72661041  0.59952860  0.22753375     0.62100
F2267       F  0.58579097  0.60072999  0.21483343    -0.23100
F2268       F  0.58779355  0.59134750  0.26376799    -0.20400
F2269       F  0.58839069  0.55412579  0.23083393    -0.20100
F2270       F  0.73690078  0.61702672  0.25052758    -0.20100
F2271       F  0.73246897  0.61344828  0.20085224    -0.20400
F2272       F  0.74206064  0.57301108  0.22830496    -0.23100
C2273       C  0.91580181  0.75995083  0.12791305    -0.06000
C2274       C  0.93847970  0.75866133  0.14959849     0.00000
C2275       C  0.93080252  0.76082953  0.17983118    -0.08600
C2276       C  0.90048547  0.76341634  0.18714498    -0.06000
C2277       C  0.87804845  0.76349579  0.16520038     0.00000
C2278       C  0.88581210  0.76247778  0.13505188    -0.08500
C2279       C  0.86258946  0.76435954  0.11044049     0.61900
H2280       H  0.92185583  0.75860812  0.10490287     0.12600
H2281       H  0.89395291  0.76443598  0.21014255     0.12600
C2282       C  0.95422358  0.75946539  0.20413914     0.62100
F2283       F  0.87532202  0.76640545  0.08270170    -0.23100
F2284       F  0.84521607  0.78926333  0.11434415    -0.20400
F2285       F  0.84481267  0.73934818  0.11085816    -0.20100
F2286       F  0.97217782  0.78426633  0.20256168    -0.20100
F2287       F  0.97135605  0.73428028  0.20098872    -0.20400
F2288       F  0.94170838  0.75864452  0.23201487    -0.23100
C2289       C  0.80445106  0.94061529  0.49880439    -0.06000
C2290       C  0.80319277  0.91016998  0.50567945     0.00000
C2291       C  0.82956414  0.89559178  0.51554059    -0.08600
C2292       C  0.85555347  0.91234232  0.51924678    -0.06000
C2293       C  0.85728969  0.94223896  0.51082313     0.00000
C2294       C  0.83130612  0.95682406  0.50036279    -0.08500
C2295       C  0.83186046  0.98912754  0.49064944     0.61900
H2296       H  0.78451943  0.95115485  0.49027234     0.12600
H2297       H  0.87552671  0.90123400  0.52704172     0.12600
C2298       C  0.83288451  0.86246537  0.52122461     0.62100
F2299       F  0.80371416  0.99963166  0.48402581    -0.23100
F2300       F  0.84886015  0.99224306  0.46549937    -0.20400
F2301       F  0.84372241  0.00641955  0.51305979    -0.20100
F2302       F  0.85513268  0.85152506  0.50348280    -0.20100
F2303       F  0.80766550  0.84629195  0.51534672    -0.20400
F2304       F  0.84088087  0.85780290  0.55057370    -0.23100
C2305       C  0.67807029  0.92625814  0.47312687    -0.06000
C2306       C  0.69262506  0.91450855  0.49847454     0.00000
C2307       C  0.67698489  0.91574216  0.52579658    -0.08600
C2308       C  0.64622491  0.92207495  0.52502671    -0.06000
C2309       C  0.63082959  0.92842429  0.49848617     0.00000
C2310       C  0.64744535  0.93212600  0.47221274    -0.08500
C2311       C  0.63323066  0.94203930  0.44308081     0.61900
H2312       H  0.69068884  0.92890449  0.45302123     0.12600
H2313       H  0.63366960  0.92159305  0.54533821     0.12600
C2314       C  0.69200027  0.91225780  0.55581627     0.62100
F2315       F  0.65411166  0.94762209  0.42145889    -0.23100
F2316       F  0.61734196  0.96787358  0.44721278    -0.20400
F2317       F  0.61453200  0.92004735  0.43259234    -0.20100
F2318       F  0.71510516  0.93232719  0.55821744    -0.20100
F2319       F  0.70220939  0.88377574  0.55949601    -0.20400
F2320       F  0.67283560  0.91784985  0.57888789    -0.23100
C2321       C  0.74148710  0.81831663  0.42647630    -0.06000
C2322       C  0.74882761  0.84841434  0.43130986     0.00000
C2323       C  0.75295531  0.86727143  0.40567764    -0.08600
C2324       C  0.75018675  0.85476013  0.37736409    -0.06000
C2325       C  0.74247326  0.82514264  0.37296380     0.00000
C2326       C  0.73833579  0.80633878  0.39778276    -0.08500
C2327       C  0.73143114  0.77356719  0.39400898     0.61900
H2328       H  0.73726605  0.80400008  0.44513464     0.12600
H2329       H  0.75432401  0.86828157  0.35788265     0.12600
C2330       C  0.76261942  0.89997953  0.40621337     0.62100
F2331       F  0.73140305  0.75852795  0.42086491    -0.23100
F2332       F  0.75255975  0.76060435  0.37627923    -0.20400
F2333       F  0.70375292  0.77021214  0.38099327    -0.20100
F2334       F  0.74971259  0.91601943  0.42849817    -0.20100
F2335       F  0.75485535  0.91437457  0.38003821    -0.20400
F2336       F  0.79310997  0.90161712  0.40910634    -0.23100
C2337       C  0.90041266  0.53470015  0.67697124    -0.06000
C2338       C  0.91392142  0.51277828  0.69499839     0.00000
C2339       C  0.93591205  0.49416018  0.68227845    -0.08600
C2340       C  0.94164116  0.49703564  0.65171067    -0.06000
C2341       C  0.92740802  0.51829310  0.63378601     0.00000
C2342       C  0.90709153  0.53808443  0.64666672    -0.08500
C2343       C  0.89196045  0.56206307  0.62826561     0.61900
H2344       H  0.88410903  0.54910903  0.68679441     0.12600
H2345       H  0.95776648  0.48275112  0.64138482     0.12600
C2346       C  0.95349953  0.47113561  0.70002515     0.62100
F2347       F  0.87122498  0.57751048  0.64446262    -0.23100
F2348       F  0.87756975  0.54945912  0.60420935    -0.20400
F2349       F  0.91289184  0.58210853  0.61826205    -0.20100
F2350       F  0.93518703  0.45396201  0.71753652    -0.20100
F2351       F  0.97426423  0.48533107  0.71766362    -0.20400
F2352       F  0.96866679  0.45198641  0.68172923    -0.23100
C2353       C  0.94391463  0.48496126  0.81076518    -0.06000
C2354       C  0.91298388  0.49013522  0.80912013     0.00000
C2355       C  0.89666419  0.48809957  0.83629005    -0.08600
C2356       C  0.91229906  0.48444481  0.86312677    -0.06000
C2357       C  0.94303898  0.48080613  0.86466319     0.00000
C2358       C  0.95919898  0.48015779  0.83792111    -0.08500
C2359       C  0.99247897  0.47496428  0.83788830     0.61900
H2360       H  0.95647152  0.48401084  0.79069149     0.12600
H2361       H  0.89993263  0.48410515  0.88363312     0.12600
C2362       C  0.86303061  0.48962359  0.84018763     0.62100
F2363       F  0.00421648  0.47749702  0.80975728    -0.23100
F2364       F  0.99856000  0.44666670  0.84831418    -0.20400
F2365       F  0.00655594  0.49558987  0.85576567    -0.20100
F2366       F  0.84634391  0.49088595  0.81457785    -0.20100
F2367       F  0.85631000  0.51438142  0.85677980    -0.20400
F2368       F  0.85382086  0.46463841  0.85558330    -0.23100
C2369       C  0.82840436  0.40925606  0.70698268    -0.06000
C2370       C  0.81363792  0.39690750  0.73130440     0.00000
C2371       C  0.80660647  0.41541839  0.75552684    -0.08600
C2372       C  0.81935181  0.44385390  0.75687815    -0.06000
C2373       C  0.83851022  0.45443243  0.73482816     0.00000
C2374       C  0.84061021  0.43812638  0.70805024    -0.08500
C2375       C  0.85634671  0.45020432  0.68111532     0.61900
H2376       H  0.83200293  0.39537613  0.68785345     0.12600
H2377       H  0.81647687  0.45711129  0.77657050     0.12600
C2378       C  0.78590018  0.40537008  0.77997839     0.62100
F2379       F  0.85390798  0.43129289  0.65713512    -0.23100
F2380       F  0.88594372  0.45377550  0.68754156    -0.20400
F2381       F  0.84412002  0.47709444  0.67274947    -0.20100
F2382       F  0.79976047  0.38469857  0.79811289    -0.20100
F2383       F  0.76057780  0.39298460  0.76763459    -0.20400
F2384       F  0.77728112  0.42891444  0.79747201    -0.23100
C2385       C  0.60800827  0.25572406  0.68020600    -0.06000
C2386       C  0.62500717  0.23442000  0.66571301     0.00000
C2387       C  0.61060662  0.21325256  0.64762443    -0.08600
C2388       C  0.57943592  0.21478587  0.64400822    -0.06000
C2389       C  0.56213555  0.23645731  0.65820350     0.00000
C2390       C  0.57695174  0.25742447  0.67661886    -0.08500
C2391       C  0.56105148  0.28357698  0.68985967     0.61900
H2392       H  0.61962156  0.27179992  0.69381473     0.12600
H2393       H  0.56844149  0.19947589  0.62922214     0.12600
C2394       C  0.62830084  0.18988454  0.63153383     0.62100
F2395       F  0.57931422  0.30006949  0.70835623    -0.23100
F2396       F  0.53725744  0.27407075  0.70641011    -0.20400
F2397       F  0.55167292  0.30189337  0.66704969    -0.20100
F2398       F  0.64217317  0.17141628  0.65194814    -0.20100
F2399       F  0.64953075  0.20345265  0.61414687    -0.20400
F2400       F  0.61047951  0.17261072  0.61335034    -0.23100
C2401       C  0.74767016  0.30146338  0.57758597    -0.06000
C2402       C  0.75523437  0.32224734  0.59954154     0.00000
C2403       C  0.76593632  0.35071633  0.59082260    -0.08600
C2404       C  0.76738812  0.35755000  0.56045231    -0.06000
C2405       C  0.75832593  0.33735902  0.53864445     0.00000
C2406       C  0.74893753  0.30865465  0.54718379    -0.08500
C2407       C  0.73919098  0.28626153  0.52413137     0.61900
H2408       H  0.74011938  0.27966685  0.58443453     0.12600
H2409       H  0.77362978  0.37968132  0.55353709     0.12600
C2410       C  0.77431223  0.37460433  0.61315961     0.62100
F2411       F  0.73546104  0.25826497  0.53637409    -0.23100
F2412       F  0.76035737  0.28438668  0.50226669    -0.20400
F2413       F  0.71256038  0.29505326  0.51147874    -0.20100
F2414       F  0.80039979  0.36695645  0.62764199    -0.20100
F2415       F  0.75192511  0.37788356  0.63359870    -0.20400
F2416       F  0.77870875  0.40194936  0.59970453    -0.23100
C2417       C  0.91020678  0.28090834  0.79888439    -0.06000
C2418       C  0.88621210  0.27928181  0.81823230     0.00000
C2419       C  0.89159008  0.27904500  0.84899069    -0.08600
C2420       C  0.92088687  0.27666723  0.85921400    -0.06000
C2421       C  0.94570836  0.27578952  0.84016597     0.00000
C2422       C  0.94001680  0.28000950  0.80906336    -0.08500
C2423       C  0.96393651  0.28359109  0.78602867     0.61900
H2424       H  0.90522882  0.28168992  0.77534874     0.12600
H2425       H  0.92439158  0.27496919  0.88298983     0.12600
C2426       C  0.86747143  0.28143567  0.87210145     0.62100
F2427       F  0.95243094  0.29223391  0.75871843    -0.23100
F2428       F  0.97816616  0.25680394  0.78198588    -0.20400
F2429       F  0.98357050  0.30553662  0.79471860    -0.20100
F2430       F  0.86624838  0.25533563  0.88831088    -0.20100
F2431       F  0.83971227  0.28702989  0.86005784    -0.20400
F2432       F  0.87429124  0.30450086  0.89111661    -0.23100
C2433       C  0.79086759  0.17135803  0.91936048    -0.06000
C2434       C  0.76311641  0.17086363  0.93366629     0.00000
C2435       C  0.73912324  0.18531932  0.91857309    -0.08600
C2436       C  0.74136980  0.19095886  0.88810144    -0.06000
C2437       C  0.76794327  0.18717804  0.87300331     0.00000
C2438       C  0.79369209  0.17879815  0.88914270    -0.08500
C2439       C  0.82371262  0.17632130  0.87441121     0.61900
H2440       H  0.81064289  0.16581298  0.93176659     0.12600
H2441       H  0.72229640  0.19972560  0.87609745     0.12600
C2442       C  0.71123651  0.19654407  0.93306293     0.62100
F2443       F  0.84482984  0.16386636  0.89316748    -0.23100
F2444       F  0.83361413  0.20419991  0.86620639    -0.20400
F2445       F  0.82139547  0.15858576  0.84957171    -0.20100
F2446       F  0.71452938  0.19944642  0.96320525    -0.20100
F2447       F  0.68795063  0.17773050  0.92654695    -0.20400
F2448       F  0.70428867  0.22447742  0.92205857    -0.23100
C2449       C  0.61103113  0.97522176  0.82512457    -0.06000
C2450       C  0.59211823  0.98677945  0.80294149     0.00000
C2451       C  0.56165042  0.99037385  0.80914896    -0.08600
C2452       C  0.55130098  0.98314894  0.83780044    -0.06000
C2453       C  0.57065658  0.97345124  0.86052797     0.00000
C2454       C  0.60090658  0.96866770  0.85389517    -0.08500
C2455       C  0.62254730  0.95704590  0.87718998     0.61900
H2456       H  0.63432659  0.97277696  0.82008467     0.12600
H2457       H  0.52822629  0.98661416  0.84316593     0.12600
C2458       C  0.54062485  0.00335658  0.78609895     0.62100
F2459       F  0.64929469  0.94894954  0.86487558    -0.23100
F2460       F  0.61077332  0.93229303  0.89107249    -0.20400
F2461       F  0.62814104  0.97876027  0.89803169    -0.20100
F2462       F  0.53973662  0.98532053  0.76144789    -0.20100
F2463       F  0.55027768  0.03132789  0.77789833    -0.20400
F2464       F  0.51207172  0.00591278  0.79671331    -0.23100
C2465       C  0.58791572  0.97887059  0.67830205    -0.06000
C2466       C  0.58380207  0.00566563  0.69339097     0.00000
C2467       C  0.56910119  0.02924289  0.67838096    -0.08600
C2468       C  0.56263335  0.02640545  0.64799595    -0.06000
C2469       C  0.56911538  0.00052596  0.63195021     0.00000
C2470       C  0.58119568  0.97574737  0.64784746    -0.08500
C2471       C  0.58772878  0.94615728  0.63323331     0.61900
H2472       H  0.59831865  0.96069780  0.69017400     0.12600
H2473       H  0.55208780  0.04491543  0.63677130     0.12600
C2474       C  0.55926021  0.05768748  0.69318519     0.62100
F2475       F  0.59837843  0.92527373  0.65331368    -0.23100
F2476       F  0.60905819  0.94997203  0.61173094    -0.20400
F2477       F  0.56206145  0.93474228  0.62066594    -0.20100
F2478       F  0.57566777  0.08125008  0.68232758    -0.20100
F2479       F  0.56226423  0.05670419  0.72365957    -0.20400
F2480       F  0.52961504  0.06264994  0.68671212    -0.23100
C2481       C  0.69403193  0.09459132  0.72415380    -0.06000
C2482       C  0.69148740  0.11416583  0.74796944     0.00000
C2483       C  0.67682088  0.10451953  0.77378808    -0.08600
C2484       C  0.66362164  0.07617875  0.77412423    -0.06000
C2485       C  0.66469161  0.05640917  0.74979176     0.00000
C2486       C  0.68194975  0.06558128  0.72472389    -0.08500
C2487       C  0.68996565  0.04508325  0.69921181     0.61900
H2488       H  0.70630420  0.10224499  0.70511283     0.12600
H2489       H  0.65181026  0.07064165  0.79334903     0.12600
C2490       C  0.67377045  0.12447093  0.80074110     0.62100
F2491       F  0.70386623  0.06022839  0.67643444    -0.23100
F2492       F  0.66540089  0.03149601  0.68691919    -0.20400
F2493       F  0.70957590  0.02384520  0.70949134    -0.20100
F2494       F  0.65549962  0.11227937  0.82207767    -0.20100
F2495       F  0.66178338  0.15152783  0.79232107    -0.20400
F2496       F  0.70133613  0.12889675  0.81369856    -0.23100
C2497       C  0.84435089  0.61393390  0.75201017    -0.06000
C2498       C  0.81341215  0.61308960  0.74981567     0.00000
C2499       C  0.79874974  0.58540673  0.74744614    -0.08600
C2500       C  0.81579798  0.55909532  0.74819839    -0.06000
C2501       C  0.84679325  0.55991116  0.75157878     0.00000
C2502       C  0.86146980  0.58789415  0.75309260    -0.08500
C2503       C  0.89504330  0.59077286  0.75568846     0.61900
H2504       H  0.85504158  0.63544664  0.75333235     0.12600
H2505       H  0.80499205  0.53764463  0.74695306     0.12600
C2506       C  0.76532668  0.58392605  0.74404178     0.62100
F2507       F  0.90441575  0.61957630  0.75034206    -0.23100
F2508       F  0.90865971  0.57278128  0.73530190    -0.20400
F2509       F  0.90445913  0.58298156  0.78389998    -0.20100
F2510       F  0.75635526  0.60075517  0.71981792    -0.20100
F2511       F  0.75224699  0.59493957  0.76925953    -0.20400
F2512       F  0.75547002  0.55512745  0.73985779    -0.23100
C2513       C  0.71974192  0.81244339  0.58614545    -0.06000
C2514       C  0.74128979  0.82128432  0.60696385     0.00000
C2515       C  0.76474045  0.84007100  0.59793208    -0.08600
C2516       C  0.76552376  0.84970790  0.56824191    -0.06000
C2517       C  0.74443957  0.84041205  0.54708219     0.00000
C2518       C  0.72094356  0.82147034  0.55615830    -0.08500
C2519       C  0.69642861  0.81189176  0.53489184     0.61900
H2520       H  0.70202671  0.79805483  0.59360106     0.12600
H2521       H  0.78250174  0.86517908  0.56141140     0.12600
C2522       C  0.78824286  0.85078881  0.61977604     0.62100
F2523       F  0.70755877  0.79218797  0.51452988    -0.23100
F2524       F  0.68472510  0.83627853  0.52015237    -0.20400
F2525       F  0.67346233  0.79787472  0.54955299    -0.20100
F2526       F  0.80505055  0.82707160  0.62976089    -0.20100
F2527       F  0.77484488  0.86416920  0.64365158    -0.20400
F2528       F  0.80728068  0.87123622  0.60705061    -0.23100
C2529       C  0.57653867  0.76997295  0.80230475    -0.06000
C2530       C  0.59762485  0.75049278  0.81504792     0.00000
C2531       C  0.58828044  0.73081246  0.83793260    -0.08600
C2532       C  0.55847282  0.73058824  0.84607130    -0.06000
C2533       C  0.53762748  0.75043838  0.83418185     0.00000
C2534       C  0.54664669  0.77057585  0.81157437    -0.08500
C2535       C  0.52541869  0.79235890  0.79665749     0.61900
H2536       H  0.58354479  0.78461452  0.78458510     0.12600
H2537       H  0.55119033  0.71466576  0.86249183     0.12600
C2538       C  0.60935427  0.71038558  0.85471936     0.62100
F2539       F  0.54059269  0.81462338  0.78188111    -0.23100
F2540       F  0.50734863  0.80587676  0.81707936    -0.20400
F2541       F  0.50805631  0.77749407  0.77615212    -0.20100
F2542       F  0.63364224  0.72643236  0.86469032    -0.20100
F2543       F  0.61816358  0.68770635  0.83630190    -0.20400
F2544       F  0.59635502  0.69750158  0.87934488    -0.23100
C2545       C  0.66891102  0.90059452  0.71373557    -0.06000
C2546       C  0.65815076  0.88118973  0.73581463     0.00000
C2547       C  0.63986109  0.89325674  0.75844559    -0.08600
C2548       C  0.63506838  0.92408715  0.75894037    -0.06000
C2549       C  0.64669543  0.94338446  0.73756365     0.00000
C2550       C  0.66312988  0.93138530  0.71387773    -0.08500
C2551       C  0.67471302  0.95056236  0.68875465     0.61900
H2552       H  0.68254211  0.89158613  0.69638595     0.12600
H2553       H  0.62205666  0.93359584  0.77647344     0.12600
C2554       C  0.62483766  0.87434854  0.78207172     0.62100
F2555       F  0.68362959  0.93358950  0.66498225    -0.23100
F2556       F  0.69881675  0.96670449  0.69863954    -0.20400
F2557       F  0.65300916  0.96972975  0.67852192    -0.20100
F2558       F  0.64585947  0.86258108  0.80132303    -0.20100
F2559       F  0.60877863  0.85175863  0.76880839    -0.20400
F2560       F  0.60521252  0.89064964  0.79884008    -0.23100
C2561       C  0.75508730  0.69169254  0.89025687    -0.06000
C2562       C  0.72965581  0.67977357  0.87678823     0.00000
C2563       C  0.70903151  0.66394309  0.89428928    -0.08600
C2564       C  0.71609883  0.65823381  0.92431794    -0.06000
C2565       C  0.74325041  0.66736950  0.93674565     0.00000
C2566       C  0.76200394  0.68629671  0.92009303    -0.08500
C2567       C  0.78981804  0.70085163  0.93238341     0.61900
H2568       H  0.77017345  0.70497569  0.87707009     0.12600
H2569       H  0.70160365  0.64446017  0.93756375     0.12600
C2570       C  0.68057048  0.65200865  0.88100176     0.62100
F2571       F  0.78810244  0.73120098  0.92783073    -0.23100
F2572       F  0.81431274  0.69011073  0.91775424    -0.20400
F2573       F  0.79367258  0.69595114  0.96235773    -0.20100
F2574       F  0.68677058  0.63371429  0.85738806    -0.20100
F2575       F  0.66355223  0.67546629  0.87122101    -0.20400
F2576       F  0.66421324  0.63599568  0.90141181    -0.23100
C2577       C  0.88675321  0.73144323  0.68574235    -0.06000
C2578       C  0.86370455  0.73626997  0.66514505     0.00000
C2579       C  0.87052038  0.74181532  0.63512242    -0.08600
C2580       C  0.90039731  0.74455818  0.62721666    -0.06000
C2581       C  0.92361428  0.74258361  0.64823626     0.00000
C2582       C  0.91674126  0.73501564  0.67790127    -0.08500
C2583       C  0.94058291  0.73282632  0.70154708     0.61900
H2584       H  0.88094942  0.72672319  0.70852549     0.12600
H2585       H  0.90572750  0.75070780  0.60473236     0.12600
C2586       C  0.84643552  0.74518984  0.61153227     0.62100
F2587       F  0.92899650  0.72721387  0.72931838    -0.23100
F2588       F  0.95590208  0.75934046  0.70281253    -0.20400
F2589       F  0.95966803  0.70995152  0.69489604    -0.20100
F2590       F  0.83058121  0.77091949  0.61612542    -0.20100
F2591       F  0.82741745  0.72110460  0.61266019    -0.20400
F2592       F  0.85809977  0.74667938  0.58329813    -0.23100
loop_ 
_geom_bond_atom_site_label_1 
_geom_bond_atom_site_label_2 
_geom_bond_distance 
_geom_bond_site_symmetry_2 
_ccdc_geom_bond_type 
O1           Mg3   2.141       .  S
O1           Mg9   2.149       .  S
O1           C36   1.237       .  S
C2           O15   1.240       .  S
C2           O39   1.274       .  A
C2           H41   1.081       .  S
Mg3          O32   2.150       .  S
Mg3          O47   2.302       .  S
Mg3          O43   2.262       .  S
Mg3          O14   2.295       .  S
O4          Mg46   2.132       .  S
O4          Mg29   2.135       .  S
O4           C25   1.238       .  S
O5           C36   1.271       .  A
O5          Mg29   2.302       .  S
C6            O8   1.272       .  A
C6           O20   1.280       .  A
C6         C2498   1.481       .  S
O7           C35   1.273       .  A
O7           Mg9   2.308       .  S
O8          Mg40   2.260       .  S
Mg9          O15   2.146       .  S
Mg9          O23   2.288       .  S
Mg9          O11   2.353       .  S
C10          O48   1.274       .  A
C10          O16   1.277       .  A
C10        C2562   1.480       .  S
O11          C18   1.282       .  A
H12          C25   1.081       .  S
C13          O27   1.237       .  S
C13          O28   1.270       .  A
C13          H38   1.081       .  S
O14          C37   1.271       .  A
O15         Mg29   2.145       .  S
O16         Mg46   2.327       .  S
C17          O30   1.269       .  A
C17          O22   1.278       .  A
C17        C2530   1.500       .  S
C18          O45   1.269       .  A
C18        C2546   1.505       .  S
Mg19         O26   2.129       .  S
Mg19         O27   2.136       .  S
Mg19         O20   2.347       .  S
Mg19         O21   2.304       .  S
Mg19         O48   2.259       .  S
O21          C25   1.272       .  A
O22         Mg29   2.336       .  S
O23          C42   1.275       .  A
O24          C44   1.273       .  A
O24         Mg40   2.305       .  S
O26         Mg40   2.141       .  S
O26          C37   1.237       .  S
O27         Mg46   2.134       .  S
O28         Mg40   2.294       .  S
Mg29         O45   2.248       .  S
O30         Mg46   2.245       .  S
H31          C36   1.081       .  S
O32         Mg40   2.154       .  S
O32          C35   1.238       .  S
H33          C35   1.081       .  S
H34          C37   1.081       .  S
O39         Mg46   2.304       .  S
C42          O47   1.274       .  A
C42        C2514   1.482       .  S
O43          C44   1.271       .  A
C44        C2578   1.477       .  S
C49          C50   1.552       .  S
C49          C55   1.534       .  S
C49          C53   1.551   1_545  S
C49        C2485   1.563       .  S
C50          H57   1.071       .  S
C50          C51   1.362   1_545  D
C51          C52   1.541       .  S
C51        C2450   1.497       .  S
C52          C56   1.544   1_565  S
C52          C54   1.540       .  S
C52          H58   1.110       .  S
C53          H59   1.081       .  S
C53          C54   1.374       .  D
C54        C2549   1.495       .  S
C55          H60   1.086       .  S
C55          C56   1.364       .  D
C56        C2466   1.497       .  S
O61         Mg63   2.111       .  S
O61         Mg69   2.130       .  S
O61          C96   1.238       .  S
C62          O75   1.236       .  S
C62          O99   1.269       .  A
C62         H101   1.081       .  S
Mg63         O92   2.133       .  S
Mg63        O107   2.338       .  S
Mg63        O103   2.219       .  S
Mg63         O74   2.310       .  S
O64        Mg106   2.153       .  S
O64         Mg89   2.151       .  S
O64          C85   1.239       .  S
O65          C96   1.270       .  A
O65         Mg89   2.288       .  S
C66          O68   1.277       .  A
C66          O80   1.276       .  A
C66        C2386   1.487       .  S
O67          C95   1.272       .  A
O67         Mg69   2.299       .  S
O68        Mg100   2.292       .  S
Mg69         O75   2.119       .  S
Mg69         O83   2.249       .  S
Mg69         O71   2.316       .  S
C70         O108   1.273       .  A
C70          O76   1.275       .  A
C70        C2482   1.489       .  S
O71          C78   1.276       .  A
H72          C85   1.081       .  S
C73          O87   1.239       .  S
C73          O88   1.273       .  A
C73          H98   1.081       .  S
O74          C97   1.275       .  A
O75         Mg89   2.139       .  S
O76        Mg106   2.315       .  S
C77          O90   1.274       .  A
C77          O82   1.272       .  A
C77        C2437   1.478       .  S
C78         O105   1.273       .  A
C78        C2418   1.474       .  S
Mg79         O86   2.147       .  S
Mg79         O87   2.141       .  S
Mg79         O80   2.324       .  S
Mg79         O81   2.308       .  S
Mg79        O108   2.272       .  S
O81          C85   1.274       .  A
O82         Mg89   2.286       .  S
O83         C102   1.271       .  A
O84         C104   1.282       .  A
O84        Mg100   2.356       .  S
O86        Mg100   2.143       .  S
O86          C97   1.240       .  S
O87        Mg106   2.135       .  S
O88        Mg100   2.308       .  S
Mg89        O105   2.268       .  S
O90        Mg106   2.264       .  S
H91          C96   1.081       .  S
O92        Mg100   2.141       .  S
O92          C95   1.239       .  S
H93          C95   1.081       .  S
H94          C97   1.081       .  S
O99        Mg106   2.290       .  S
C102        O107   1.278       .  A
C102       C2370   1.485       .  S
O103        C104   1.267       .  A
C104       C2402   1.487       .  S
C109        C110   1.527       .  S
C109        C115   1.530       .  S
C109        C113   1.557       .  S
C109       C2354   1.547       .  S
C110        H117   1.087       .  S
C110        C111   1.364       .  D
C111        C112   1.548       .  S
C111       C2373   1.500       .  S
C112        C116   1.549       .  S
C112        C114   1.548       .  S
C112        H118   1.106       .  S
C113        H119   1.076       .  S
C113        C114   1.378       .  D
C114       C2338   1.504       .  S
C115        H120   1.086       .  S
C115        C116   1.359       .  D
C116       C2501   1.492       .  S
C121        C122   1.523       .  S
C121        C127   1.523       .  S
C121        C125   1.556       .  S
C121       C2322   1.543       .  S
C122        H129   1.084       .  S
C122        C123   1.353       .  D
C123        C124   1.552       .  S
C123       C2290   1.488       .  S
C124        C128   1.559       .  S
C124        C126   1.547       .  S
C124        H130   1.101       .  S
C125        H131   1.080       .  S
C125        C126   1.379       .  D
C126       C2517   1.495       .  S
C127        H132   1.086       .  S
C127        C128   1.370       .  D
C128       C2306   1.526       .  S
O133       Mg135   2.136       .  S
O133       Mg141   2.135       .  S
O133        C168   1.238       .  S
C134        O147   1.238       .  S
C134        O171   1.272       .  A
C134        H173   1.081       .  S
Mg135       O164   2.139       .  S
Mg135       O179   2.302       .  S
Mg135       O175   2.240       .  S
Mg135       O146   2.298       .  S
O136       Mg178   2.137       .  S
O136       Mg161   2.140       .  S
O136        C157   1.239       .  S
O137        C168   1.272       .  A
O137       Mg161   2.305       .  S
C138        O140   1.273       .  A
C138        O152   1.277       .  A
C138       C2277   1.477       .  S
O139        C167   1.272       .  A
O139       Mg141   2.303       .  S
O140       Mg172   2.263       .  S
Mg141       O147   2.132       .  S
Mg141       O155   2.255       .  S
Mg141       O143   2.329       .  S
C142        O180   1.273       .  A
C142        O148   1.274       .  A
C142       C2226   1.481       .  S
O143        C150   1.276       .  A
H144        C157   1.081       .  S
C145        O159   1.237       .  S
C145        O160   1.270       .  A
C145        H170   1.081       .  S
O146        C169   1.272       .  A
O147       Mg161   2.134       .  S
O148       Mg178   2.314       .  S
C149        O162   1.271       .  A
C149        O154   1.275       .  A
C149       C2325   1.481       .  S
C150        O177   1.272       .  A
C150       C2242   1.480       .  S
Mg151       O158   2.133       .  S
Mg151       O159   2.132       .  S
Mg151       O152   2.324       .  S
Mg151       O153   2.305       .  S
Mg151       O180   2.265       .  S
O153        C157   1.273       .  A
O154       Mg161   2.326       .  S
O155        C174   1.272       .  A
O156        C176   1.277       .  A
O156       Mg172   2.316       .  S
O158       Mg172   2.142       .  S
O158        C169   1.238       .  S
O159       Mg178   2.121       .  S
O160       Mg172   2.294       .  S
Mg161       O177   2.257       .  S
O162       Mg178   2.243       .  S
H163        C168   1.081       .  S
O164       Mg172   2.134       .  S
O164        C167   1.238       .  S
H165        C167   1.081       .  S
H166        C169   1.081       .  S
O171       Mg178   2.302       .  S
C174        O179   1.272       .  A
C174       C2258   1.473       .  S
O175        C176   1.268       .  A
C176       C2213   1.477       .  S
C181        C182   1.535   1_556  S
C181        C187   1.540       .  S
C181        C185   1.540       .  S
C181       C2181   1.541       .  S
C182        H189   1.085       .  S
C182        C183   1.362       .  D
C183        C184   1.542   1_554  S
C183       C2210   1.477       .  S
C184        C188   1.540       .  S
C184        C186   1.538       .  S
C184        H190   1.111       .  S
C185        H191   1.083       .  S
C185        C186   1.368       .  D
C186       C2194   1.490       .  S
C187        H192   1.083       .  S
C187        C188   1.362       .  D
C188       C2565   1.483       .  S
C193        C194   1.520       .  S
C193        C199   1.524       .  S
C193        C197   1.565       .  S
C193       C2245   1.550       .  S
C194        H201   1.088       .  S
C194        C195   1.359       .  D
C195        C196   1.563       .  S
C195       C2149   1.503       .  S
C196        C200   1.560       .  S
C196        C198   1.551       .  S
C196        H202   1.107       .  S
C197        H203   1.082       .  S
C197        C198   1.379       .  D
C198       C2133   1.516       .  S
C199        H204   1.085       .  S
C199        C200   1.360       .  D
C200       C2162   1.496       .  S
C205        C206   1.524       .  S
C205        C211   1.539       .  S
C205        C209   1.559   1_565  S
C205       C2066   1.551       .  S
C206        H213   1.087       .  S
C206        C207   1.358   1_565  D
C207        C208   1.547       .  S
C207       C2101   1.494       .  S
C208        C212   1.548       .  S
C208        C210   1.541       .  S
C208        H214   1.111       .  S
C209        H215   1.078   1_545  S
C209        C210   1.381       .  D
C210       C2082   1.503       .  S
C211        H216   1.085       .  S
C211        C212   1.357   1_565  D
C212       C2114   1.494       .  S
C217        C218   1.531       .  S
C217        C223   1.543       .  S
C217        C221   1.546       .  S
C217       C2434   1.555       .  S
C218        H225   1.084       .  S
C218        C219   1.361       .  D
C219        C220   1.561   1_556  S
C219       C2037   1.500       .  S
C220        C224   1.548   1_554  S
C220        C222   1.543       .  S
C220        H226   1.102       .  S
C221        H227   1.085       .  S
C221        C222   1.382   1_556  D
C222       C2018   1.511       .  S
C223        H228   1.082       .  S
C223        C224   1.358       .  D
C224       C2053   1.497   1_556  S
C229        C230   1.524       .  S
C229        C235   1.530       .  S
C229        C233   1.565       .  S
C229       C1954   1.545       .  S
C230        H237   1.088       .  S
C230        C231   1.358       .  D
C231        C232   1.553       .  S
C231       C2002   1.491       .  S
C232        C236   1.547       .  S
C232        C234   1.552       .  S
C232        H238   1.109       .  S
C233        H239   1.073       .  S
C233        C234   1.382       .  D
C234       C1970   1.520       .  S
C235        H240   1.087       .  S
C235        C236   1.356       .  D
C236       C1986   1.493       .  S
C241        C242   1.522       .  S
C241        C247   1.525       .  S
C241        C245   1.562       .  S
C241       C1922   1.536       .  S
C242        H249   1.088       .  S
C242        C243   1.357       .  D
C243        C244   1.552       .  S
C243       C2405   1.483       .  S
C244        C248   1.544       .  S
C244        C246   1.550       .  S
C244        H250   1.109       .  S
C245        H251   1.073       .  S
C245        C246   1.376       .  D
C246       C1938   1.516       .  S
C247        H252   1.087       .  S
C247        C248   1.357       .  D
C248       C1906   1.485       .  S
C253        C254   1.540       .  S
C253        C259   1.532       .  S
C253        C257   1.556       .  S
C253       C1874   1.553       .  S
C254        H261   1.083       .  S
C254        C255   1.354       .  D
C255        C256   1.539       .  S
C255       C2261   1.488       .  S
C256        C260   1.543       .  S
C256        C258   1.535       .  S
C256        H262   1.111       .  S
C257        H263   1.079       .  S
C257        C258   1.379       .  D
C258       C1858   1.491       .  S
C259        H264   1.086       .  S
C259        C260   1.365       .  D
C260       C1890   1.497       .  S
C265        C266   1.524       .  S
C265        C271   1.524       .  S
C265        C269   1.562       .  S
C265       C1810   1.537       .  S
C266        H273   1.087       .  S
C266        C267   1.359       .  D
C267        C268   1.544       .  S
C267       C1794   1.485       .  S
C268        C272   1.545       .  S
C268        C270   1.542       .  S
C268        H274   1.111       .  S
C269        H275   1.079       .  S
C269        C270   1.380       .  D
C270       C1829   1.498       .  S
C271        H276   1.087       .  S
C271        C272   1.358       .  D
C272       C1842   1.481       .  S
C277        C278   1.529       .  S
C277        C283   1.535   1_655  S
C277        C281   1.546       .  S
C277       C1762   1.547       .  S
C278        H285   1.085       .  S
C278        C279   1.362       .  D
C279        C280   1.554       .  S
C279       C2274   1.498       .  S
C280        C284   1.557   1_655  S
C280        C282   1.546       .  S
C280        H286   1.104       .  S
C281        H287   1.086       .  S
C281        C282   1.375       .  D
C282       C1778   1.504       .  S
C283        H288   1.083       .  S
C283        C284   1.360       .  D
C284       C1746   1.497       .  S
O289       Mg291   2.120       .  S
O289       Mg297   2.140       .  S
O289        C324   1.239       .  S
C290        O303   1.237       .  S
C290        O327   1.270       .  A
C290        H329   1.081       .  S
Mg291       O320   2.146       .  S
Mg291       O335   2.323       .  S
Mg291       O331   2.248       .  S
Mg291       O302   2.307       .  S
O292       Mg334   2.145       .  S
O292       Mg317   2.140       .  S
O292        C313   1.239       .  S
O293        C324   1.271       .  A
O293       Mg317   2.293       .  S
C294        O296   1.271       .  A
C294        O308   1.284       .  A
C294       C1698   1.501       .  S
O295        C323   1.272       .  A
O295       Mg297   2.296       .  S
O296       Mg328   2.276       .  S
Mg297       O303   2.133       .  S
Mg297       O311   2.270       .  S
Mg297       O299   2.284       .  S
C298        O336   1.275       .  A
C298        O304   1.279       .  A
C298       C1714   1.492       .  S
O299        C306   1.274       .  A
H300        C313   1.081       .  S
C301        O315   1.239       .  S
C301        O316   1.275       .  A
C301        H326   1.081       .  S
O302        C325   1.273       .  A
O303       Mg317   2.150       .  S
O304       Mg334   2.318       .  S
C305        O318   1.278       .  A
C305        O310   1.282       .  A
C305       C2130   1.516       .  S
C306        O333   1.275       .  A
C306       C1845   1.481       .  S
Mg307       O314   2.147       .  S
Mg307       O315   2.152       .  S
Mg307       O308   2.361       .  S
Mg307       O309   2.307       .  S
Mg307       O336   2.287       .  S
O309        C313   1.274       .  A
O310       Mg317   2.337       .  S
O311        C330   1.271       .  A
O312        C332   1.281       .  A
O312       Mg328   2.335       .  S
O314       Mg328   2.139       .  S
O314        C325   1.239       .  S
O315       Mg334   2.172       .  S
O316       Mg328   2.319       .  S
Mg317       O333   2.285       .  S
O318       Mg334   2.322       .  S
H319        C324   1.081       .  S
O320       Mg328   2.133       .  S
O320        C323   1.239       .  S
H321        C323   1.081       .  S
H322        C325   1.081       .  S
O327       Mg334   2.293       .  S
C330        O335   1.276       .  A
C330       C1730   1.478       .  S
O331        C332   1.268       .  A
C332       C1749   1.498       .  S
C337        C338   1.531       .  S
C337        C343   1.529       .  S
C337        C341   1.572       .  S
C337       C1650   1.562       .  S
C338        H345   1.087       .  S
C338        C339   1.362       .  D
C339        C340   1.553   1_556  S
C339       C1666   1.502   1_556  S
C340        C344   1.553   1_554  S
C340        C342   1.538       .  S
C340        H346   1.110       .  S
C341        H347   1.082       .  S
C341        C342   1.380   1_556  D
C342       C1701   1.510       .  S
C343        H348   1.084       .  S
C343        C344   1.364       .  D
C344       C1682   1.496   1_556  S
C349        C350   1.506       .  S
C349        C355   1.516       .  S
C349        C353   1.579       .  S
C349       C1634   1.540       .  S
C350        H357   1.084       .  S
C350        C351   1.357       .  D
C351        C352   1.558       .  S
C351       C1618   1.480       .  S
C352        C356   1.551       .  S
C352        C354   1.534       .  S
C352        H358   1.110       .  S
C353        H359   1.083       .  S
C353        C354   1.389       .  D
C354       C2389   1.511       .  S
C355        H360   1.087       .  S
C355        C356   1.349       .  D
C356       C1602   1.490       .  S
O361       Mg363   2.141       .  S
O361       Mg369   2.128       .  S
O361        C396   1.238       .  S
C362        O375   1.240       .  S
C362        O399   1.273       .  A
C362        H401   1.081       .  S
Mg363       O392   2.141       .  S
Mg363       O407   2.344       .  S
Mg363       O403   2.278       .  S
Mg363       O374   2.305       .  S
O364       Mg406   2.133       .  S
O364       Mg389   2.124       .  S
O364        C385   1.238       .  S
O365        C396   1.272       .  A
O365       Mg389   2.306       .  S
C366        O368   1.274       .  A
C366        O380   1.280       .  A
C366       C2085   1.511       .  S
O367        C395   1.276       .  A
O367       Mg369   2.319       .  S
O368       Mg400   2.282       .  S
Mg369       O375   2.126       .  S
Mg369       O383   2.250       .  S
Mg369       O371   2.369       .  S
C370        O408   1.276       .  A
C370        O376   1.271       .  A
C370       C1586   1.488       .  S
O371        C378   1.283       .  A
H372        C385   1.081       .  S
C373        O387   1.238       .  S
C373        O388   1.271       .  A
C373        H398   1.081       .  S
O374        C397   1.273       .  A
O375       Mg389   2.130       .  S
O376       Mg406   2.285       .  S
C377        O390   1.269       .  A
C377        O382   1.275       .  A
C377       C1637   1.476       .  S
C378        O405   1.269       .  A
C378       C1973   1.495       .  S
Mg379       O386   2.142       .  S
Mg379       O387   2.147       .  S
Mg379       O380   2.335       .  S
Mg379       O381   2.296       .  S
Mg379       O408   2.291       .  S
O381        C385   1.271       .  A
O382       Mg389   2.328       .  S
O383        C402   1.274       .  A
O384        C404   1.279       .  A
O384       Mg400   2.337       .  S
O386       Mg400   2.140       .  S
O386        C397   1.239       .  S
O387       Mg406   2.124       .  S
O388       Mg400   2.295       .  S
Mg389       O405   2.243       .  S
O390       Mg406   2.229       .  S
H391        C396   1.081       .  S
O392       Mg400   2.155       .  S
O392        C395   1.241       .  S
H393        C395   1.081       .  S
H394        C397   1.081       .  S
O399       Mg406   2.297       .  S
C402        O407   1.278       .  A
C402       C1570   1.505       .  S
O403        C404   1.275       .  A
C404       C1554   1.488       .  S
C409        C410   1.535       .  S
C409        C415   1.536       .  S
C409        C413   1.561   1_655  S
C409       C2421   1.558       .  S
C410        H417   1.087       .  S
C410        C411   1.362   1_655  D
C411        C412   1.537       .  S
C411       C1522   1.484       .  S
C412        C416   1.542   1_455  S
C412        C414   1.536       .  S
C412        H418   1.111       .  S
C413        H419   1.067       .  S
C413        C414   1.378       .  D
C414       C1557   1.499       .  S
C415        H420   1.086       .  S
C415        C416   1.357       .  D
C416       C1538   1.487       .  S
O421       Mg423   2.130       .  S
O421       Mg429   2.136       .  S
O421        C456   1.238       .  S
C422        O435   1.238       .  S
C422        O459   1.271       .  A
C422        H461   1.081       .  S
Mg423       O452   2.149       .  S
Mg423       O467   2.315       .  S
Mg423       O463   2.254       .  S
Mg423       O434   2.293       .  S
O424       Mg466   2.136       .  S
O424       Mg449   2.146       .  S
O424        C445   1.239       .  S
O425        C456   1.272       .  A
O425       Mg449   2.305       .  S
C426        O428   1.272       .  A
C426        O440   1.280       .  A
C426       C1893   1.509       .  S
O427        C455   1.274       .  A
O427       Mg429   2.305       .  S
O428       Mg460   2.279       .  S
Mg429       O435   2.132       .  S
Mg429       O443   2.257       .  S
Mg429       O431   2.312       .  S
C430        O468   1.272       .  A
C430        O436   1.273       .  A
C430       C1909   1.472       .  S
O431        C438   1.275       .  A
H432        C445   1.081       .  S
C433        O447   1.238       .  S
C433        O448   1.271       .  A
C433        H458   1.081       .  S
O434        C457   1.270       .  A
O435       Mg449   2.144       .  S
O436       Mg466   2.308       .  S
C437        O450   1.263       .  A
C437        O442   1.283       .  A
C437       C1493   1.503       .  S
C438        O465   1.277       .  A
C438       C1477   1.476       .  S
Mg439       O446   2.116       .  S
Mg439       O447   2.137       .  S
Mg439       O440   2.330       .  S
Mg439       O441   2.305       .  S
Mg439       O468   2.261       .  S
O441        C445   1.273       .  A
O442       Mg449   2.367       .  S
O443        C462   1.270       .  A
O444        C464   1.275       .  A
O444       Mg460   2.313       .  S
O446       Mg460   2.138       .  S
O446        C457   1.237       .  S
O447       Mg466   2.128       .  S
O448       Mg460   2.296       .  S
Mg449       O465   2.285       .  S
O450       Mg466   2.212       .  S
H451        C456   1.081       .  S
O452       Mg460   2.150       .  S
O452        C455   1.240       .  S
H453        C455   1.081       .  S
H454        C457   1.081       .  S
O459       Mg466   2.295       .  S
C462        O467   1.276       .  A
C462       C2021   1.474       .  S
O463        C464   1.272       .  A
C464       C1506   1.469       .  S
C469        C470   1.530   1_545  S
C469        C475   1.524       .  S
C469        C473   1.570       .  S
C469       C1458   1.547       .  S
C470        H477   1.087       .  S
C470        C471   1.358       .  D
C471        C472   1.540   1_565  S
C471       C2229   1.487       .  S
C472        C476   1.548       .  S
C472        C474   1.545       .  S
C472        H478   1.108   1_545  S
C473        H479   1.069       .  S
C473        C474   1.383       .  D
C474       C1442   1.518       .  S
C475        H480   1.088       .  S
C475        C476   1.358       .  D
C476       C1474   1.488       .  S
C481        C482   1.537       .  S
C481        C487   1.541       .  S
C481        C485   1.539       .  S
C481       C1426   1.548       .  S
C482        H489   1.080       .  S
C482        C483   1.379       .  D
C483        C484   1.556   1_455  S
C483       C1410   1.525       .  S
C484        C488   1.546   1_655  S
C484        C486   1.546       .  S
C484        H490   1.099       .  S
C485        H491   1.083       .  S
C485        C486   1.368   1_455  D
C486       C1490   1.493       .  S
C487        H492   1.086       .  S
C487        C488   1.356       .  D
C488       C1394   1.496   1_455  S
O493       Mg495   2.140       .  S
O493       Mg501   2.136       .  S
O493        C528   1.238       .  S
C494        O507   1.240       .  S
C494        O531   1.275       .  A
C494        H533   1.081       .  S
Mg495       O524   2.164       .  S
Mg495       O539   2.327       .  S
Mg495       O535   2.293       .  S
Mg495       O506   2.294       .  S
O496       Mg538   2.140       .  S
O496       Mg521   2.136       .  S
O496        C517   1.237       .  S
O497        C528   1.274       .  A
O497       Mg521   2.314       .  S
C498        O500   1.274       .  A
C498        O512   1.278       .  A
C498       C1314   1.506       .  S
O499        C527   1.274       .  A
O499       Mg501   2.309       .  S
O500       Mg532   2.300       .  S
Mg501       O507   2.166       .  S
Mg501       O515   2.309       .  S
Mg501       O503   2.345       .  S
C502        O540   1.270       .  A
C502        O508   1.280       .  A
C502       C1429   1.489       .  S
O503        C510   1.280       .  A
H504        C517   1.081       .  S
C505        O519   1.238       .  S
C505        O520   1.271       .  A
C505        H530   1.081       .  S
O506        C529   1.270       .  A
O507       Mg521   2.142       .  S
O508       Mg538   2.342       .  S
C509        O522   1.270       .  A
C509        O514   1.278       .  A
C509       C1330   1.478       .  S
C510        O537   1.271       .  A
C510       C1362   1.479       .  S
Mg511       O518   2.117       .  S
Mg511       O519   2.141       .  S
Mg511       O512   2.320       .  S
Mg511       O513   2.298       .  S
Mg511       O540   2.246       .  S
O513        C517   1.271       .  A
O514       Mg521   2.335       .  S
O515        C534   1.279       .  A
O516        C536   1.274       .  A
O516       Mg532   2.266       .  S
O518       Mg532   2.141       .  S
O518        C529   1.237       .  S
O519       Mg538   2.125       .  S
O520       Mg532   2.290       .  S
Mg521       O537   2.267       .  S
O522       Mg538   2.250       .  S
H523        C528   1.081       .  S
O524       Mg532   2.152       .  S
O524        C527   1.240       .  S
H525        C527   1.081       .  S
H526        C529   1.081       .  S
O531       Mg538   2.315       .  S
C534        O539   1.277       .  A
C534       C1349   1.506       .  S
O535        C536   1.273       .  A
C536       C1381   1.495       .  S
C541        C542   1.529       .  S
C541        C547   1.514   1_554  S
C541        C545   1.564       .  S
C541       C1282   1.539       .  S
C542        H549   1.082       .  S
C542        C543   1.352       .  D
C543        C544   1.548       .  S
C543       C1378   1.494       .  S
C544        C548   1.558   1_554  S
C544        C546   1.543       .  S
C544        H550   1.108       .  S
C545        H551   1.082       .  S
C545        C546   1.380       .  D
C546       C1301   1.498       .  S
C547        H552   1.082       .  S
C547        C548   1.355       .  D
C548       C1573   1.490       .  S
C553        C554   1.527       .  S
C553        C559   1.523   1_545  S
C553        C557   1.563       .  S
C553       C1250   1.538       .  S
C554        H561   1.087       .  S
C554        C555   1.361       .  D
C555        C556   1.548       .  S
C555       C1365   1.492       .  S
C556        C560   1.551   1_545  S
C556        C558   1.539       .  S
C556        H562   1.111       .  S
C557        H563   1.077       .  S
C557        C558   1.379       .  D
C558       C1266   1.496       .  S
C559        H564   1.087       .  S
C559        C560   1.355       .  D
C560       C1717   1.489       .  S
O565       Mg567   2.143       .  S
O565       Mg573   2.131   1_655  S
O565        C600   1.239   1_565  S
C566        O579   1.239       .  S
C566        O603   1.273       .  A
C566        H605   1.081   1_545  S
Mg567       O596   2.130       .  S
Mg567       O611   2.314       .  S
Mg567       O607   2.259       .  S
Mg567       O578   2.307   1_565  S
O568       Mg610   2.133       .  S
O568       Mg593   2.141       .  S
O568        C589   1.240   1_455  S
O569        C600   1.273       .  A
O569       Mg593   2.309   1_655  S
C570        O572   1.273       .  A
C570        O584   1.280       .  A
C570       C1461   1.487       .  S
O571        C599   1.275   1_455  A
O571       Mg573   2.317       .  S
O572       Mg604   2.249   1_545  S
Mg573       O579   2.127   1_565  S
Mg573       O587   2.267       .  S
Mg573       O575   2.347       .  S
C574        O612   1.277   1_455  A
C574        O580   1.274       .  A
C574       C1413   1.507       .  S
O575        C582   1.281   1_565  A
H576        C589   1.081       .  S
C577        O591   1.236       .  S
C577        O592   1.269   1_445  A
C577        H602   1.081       .  S
O578        C601   1.274       .  A
O579       Mg593   2.131       .  S
O580       Mg610   2.314       .  S
C581        O594   1.272       .  A
C581        O586   1.279       .  A
C581       C1234   1.487       .  S
C582        O609   1.272       .  A
C582       C2098   1.511       .  S
Mg583       O590   2.147       .  S
Mg583       O591   2.135   1_655  S
Mg583       O584   2.348       .  S
Mg583       O585   2.304       .  S
Mg583       O612   2.284       .  S
O585        C589   1.274       .  A
O586       Mg593   2.348       .  S
O587        C606   1.270   1_455  A
O588        C608   1.276       .  A
O588       Mg604   2.331       .  S
O590       Mg604   2.142   1_545  S
O590        C601   1.240       .  S
O591       Mg610   2.127       .  S
O592       Mg604   2.296       .  S
Mg593       O609   2.272       .  S
O594       Mg610   2.249       .  S
H595        C600   1.081       .  S
O596       Mg604   2.137       .  S
O596        C599   1.240       .  S
H597        C599   1.081       .  S
H598        C601   1.081       .  S
O603       Mg610   2.300       .  S
C606        O611   1.275       .  A
C606       C1221   1.496       .  S
O607        C608   1.272       .  A
C608       C2293   1.488       .  S
O613       Mg615   2.129   1_554  S
O613       Mg621   2.136       .  S
O613        C648   1.239       .  S
C614        O627   1.241   1_545  S
C614        O651   1.276       .  A
C614        H653   1.081       .  S
Mg615       O644   2.142   1_565  S
Mg615       O659   2.345       .  S
Mg615       O655   2.279   1_565  S
Mg615       O626   2.308       .  S
O616       Mg658   2.133       .  S
O616       Mg641   2.134   1_545  S
O616        C637   1.236       .  S
O617        C648   1.273   1_655  A
O617       Mg641   2.303       .  S
C618        O620   1.272       .  A
C618        O632   1.279   1_455  A
C618       C1541   1.479   1_455  S
O619        C647   1.274       .  A
O619       Mg621   2.312   1_545  S
O620       Mg652   2.259       .  S
Mg621       O627   2.155       .  S
Mg621       O635   2.306       .  S
Mg621       O623   2.349       .  S
C622        O660   1.277   1_554  A
C622        O628   1.279       .  A
C622       C2050   1.490       .  S
O623        C630   1.279       .  A
H624        C637   1.081   1_565  S
C625        O639   1.239   1_455  S
C625        O640   1.273       .  A
C625        H650   1.081   1_455  S
O626        C649   1.273   1_465  A
O627       Mg641   2.141   1_455  S
O628       Mg658   2.346       .  S
C629        O642   1.270       .  A
C629        O634   1.277   1_545  A
C629       C1445   1.484       .  S
C630        O657   1.273   1_455  A
C630       C1781   1.508       .  S
Mg631       O638   2.148   1_655  S
Mg631       O639   2.143   1_556  S
Mg631       O632   2.338       .  S
Mg631       O633   2.294       .  S
Mg631       O660   2.294       .  S
O633        C637   1.270   1_556  A
O634       Mg641   2.324       .  S
O635        C654   1.276       .  A
O636        C656   1.274       .  A
O636       Mg652   2.314       .  S
O638       Mg652   2.139       .  S
O638        C649   1.238   1_455  S
O639       Mg658   2.129       .  S
O640       Mg652   2.299   1_554  S
Mg641       O657   2.250       .  S
O642       Mg658   2.248       .  S
H643        C648   1.081   1_556  S
O644       Mg652   2.158       .  S
O644        C647   1.240   1_556  S
H645        C647   1.081       .  S
H646        C649   1.081       .  S
O651       Mg658   2.313   1_455  S
C654        O659   1.282   1_554  A
C654       C1685   1.517       .  S
O655        C656   1.274       .  A
C656       C2117   1.486       .  S
O661       Mg663   2.134       .  S
O661       Mg669   2.138       .  S
O661        C696   1.240       .  S
C662        O675   1.241   1_565  S
C662        O699   1.275       .  A
C662        H701   1.081       .  S
Mg663       O692   2.136   1_545  S
Mg663       O707   2.351       .  S
Mg663       O703   2.268       .  S
Mg663       O674   2.311       .  S
O664       Mg706   2.126   1_545  S
O664       Mg689   2.109       .  S
O664        C685   1.238       .  S
O665        C696   1.273       .  A
O665       Mg689   2.303       .  S
C666        O668   1.273       .  A
C666        O680   1.282       .  A
C666       C2165   1.498       .  S
O667        C695   1.273   1_545  A
O667       Mg669   2.308       .  S
O668       Mg700   2.275       .  S
Mg669       O675   2.146       .  S
Mg669       O683   2.297       .  S
Mg669       O671   2.378       .  S
C670        O708   1.277       .  A
C670        O676   1.277       .  A
C670       C2309   1.497       .  S
O671        C678   1.284       .  A
H672        C685   1.081       .  S
C673        O687   1.240       .  S
C673        O688   1.273       .  A
C673        H698   1.081       .  S
O674        C697   1.275   1_545  A
O675       Mg689   2.131       .  S
O676       Mg706   2.316       .  S
C677        O690   1.269   1_545  A
C677        O682   1.276       .  A
C677       C2469   1.506       .  S
C678        O705   1.264       .  A
C678       C1621   1.484       .  S
Mg679       O686   2.147       .  S
Mg679       O687   2.140       .  S
Mg679       O680   2.340       .  S
Mg679       O681   2.295       .  S
Mg679       O708   2.298       .  S
O681        C685   1.271   1_565  A
O682       Mg689   2.315       .  S
O683        C702   1.278       .  A
O684        C704   1.277       .  A
O684       Mg700   2.328       .  S
O686       Mg700   2.141       .  S
O686        C697   1.241       .  S
O687       Mg706   2.128       .  S
O688       Mg700   2.301       .  S
Mg689       O705   2.203       .  S
O690       Mg706   2.271       .  S
H691        C696   1.081       .  S
O692       Mg700   2.149       .  S
O692        C695   1.239       .  S
H693        C695   1.081       .  S
H694        C697   1.081       .  S
O699       Mg706   2.309       .  S
C702        O707   1.281       .  A
C702       C1202   1.492       .  S
O703        C704   1.274   1_545  A
C704       C1269   1.484       .  S
C709        C710   1.543       .  S
C709        C715   1.525       .  S
C709        C713   1.552       .  S
C709       C1589   1.559       .  S
C710        H717   1.081       .  S
C710        C711   1.355       .  D
C711        C712   1.559       .  S
C711       C1205   1.514       .  S
C712        C716   1.572       .  S
C712        C714   1.548       .  S
C712        H718   1.096       .  S
C713        H719   1.083       .  S
C713        C714   1.394       .  D
C714       C1333   1.534       .  S
C715        H720   1.086       .  S
C715        C716   1.352       .  D
C716       C1237   1.504       .  S
O721       Mg723   2.122   1_545  S
O721       Mg729   2.151       .  S
O721        C756   1.238       .  S
C722        O735   1.238       .  S
C722        O759   1.272   1_545  A
C722        H761   1.081       .  S
Mg723       O752   2.141       .  S
Mg723       O767   2.308   1_565  S
Mg723       O763   2.288       .  S
Mg723       O734   2.305   1_554  S
O724       Mg766   2.149   1_545  S
O724       Mg749   2.128       .  S
O724        C745   1.238       .  S
O725        C756   1.271   1_556  A
O725       Mg749   2.295       .  S
C726        O728   1.270       .  A
C726        O740   1.282       .  A
C726       C1170   1.497       .  S
O727        C755   1.272       .  A
O727       Mg729   2.298   1_565  S
O728       Mg760   2.254   1_556  S
Mg729       O735   2.123       .  S
Mg729       O743   2.251       .  S
Mg729       O731   2.288       .  S
C730        O768   1.278       .  A
C730        O736   1.278       .  A
C730       C2453   1.492       .  S
O731        C738   1.271       .  A
H732        C745   1.081       .  S
C733        O747   1.239       .  S
C733        O748   1.273   1_556  A
C733        H758   1.081       .  S
O734        C757   1.272       .  A
O735       Mg749   2.146   1_554  S
O736       Mg766   2.324       .  S
C737        O750   1.275       .  A
C737        O742   1.278       .  A
C737       C2034   1.494       .  S
C738        O765   1.275       .  A
C738       C1189   1.490       .  S
Mg739       O746   2.151       .  S
Mg739       O747   2.151       .  S
Mg739       O740   2.336       .  S
Mg739       O741   2.295   1_565  S
Mg739       O768   2.305       .  S
O741        C745   1.271       .  A
O742       Mg749   2.300       .  S
O743        C762   1.268       .  A
O744        C764   1.280       .  A
O744       Mg760   2.327       .  S
O746       Mg760   2.142   1_556  S
O746        C757   1.238       .  S
O747       Mg766   2.142       .  S
O748       Mg760   2.303       .  S
Mg749       O765   2.285   1_556  S
O750       Mg766   2.296   1_545  S
H751        C756   1.081       .  S
O752       Mg760   2.127       .  S
O752        C755   1.239       .  S
H753        C755   1.081       .  S
H754        C757   1.081       .  S
O759       Mg766   2.296   1_554  S
C762        O767   1.279       .  A
C762       C1253   1.483       .  S
O763        C764   1.273       .  A
C764       C1669   1.507       .  S
C769        C770   1.548       .  S
C769        C775   1.536       .  S
C769        C773   1.549       .  S
C769       C1186   1.553       .  S
C770        H777   1.083       .  S
C770        C771   1.363       .  D
C771        C772   1.544       .  S
C771       C1346   1.498       .  S
C772        C776   1.543       .  S
C772        C774   1.537       .  S
C772        H778   1.111       .  S
C773        H779   1.085       .  S
C773        C774   1.379       .  D
C774       C1157   1.499       .  S
C775        H780   1.084       .  S
C775        C776   1.359       .  D
C776       C1509   1.486       .  S
O781       Mg783   2.131       .  S
O781       Mg789   2.136       .  S
O781        C816   1.238   1_556  S
C782        O795   1.238       .  S
C782        O819   1.271   1_556  A
C782        H821   1.081       .  S
Mg783       O812   2.135       .  S
Mg783       O827   2.313       .  S
Mg783       O823   2.252       .  S
Mg783       O794   2.303   1_556  S
O784       Mg826   2.135       .  S
O784       Mg809   2.115       .  S
O784        C805   1.237       .  S
O785        C816   1.272       .  A
O785       Mg809   2.303       .  S
C786        O788   1.271   1_554  A
C786        O800   1.279       .  A
C786       C2197   1.479       .  S
O787        C815   1.273       .  A
O787       Mg789   2.305       .  S
O788       Mg820   2.245       .  S
Mg789       O795   2.135       .  S
Mg789       O803   2.265       .  S
Mg789       O791   2.318       .  S
C790        O828   1.271       .  A
C790        O796   1.277       .  A
C790       C1861   1.498       .  S
O791        C798   1.274   1_556  A
H792        C805   1.081       .  S
C793        O807   1.238       .  S
C793        O808   1.272   1_554  A
C793        H818   1.081       .  S
O794        C817   1.272       .  A
O795       Mg809   2.138   1_556  S
O796       Mg826   2.306       .  S
C797        O810   1.273       .  A
C797        O802   1.278       .  A
C797       C1154   1.506       .  S
C798        O825   1.272       .  A
C798       C1298   1.498       .  S
Mg799       O806   2.139       .  S
Mg799       O807   2.149       .  S
Mg799       O800   2.335       .  S
Mg799       O801   2.294       .  S
Mg799       O828   2.259       .  S
O801        C805   1.270       .  A
O802       Mg809   2.328       .  S
O803        C822   1.274       .  A
O804        C824   1.276       .  A
O804       Mg820   2.332       .  S
O806       Mg820   2.141   1_554  S
O806        C817   1.237       .  S
O807       Mg826   2.147       .  S
O808       Mg820   2.302       .  S
Mg809       O825   2.234       .  S
O810       Mg826   2.278       .  S
H811        C816   1.081       .  S
O812       Mg820   2.135       .  S
O812        C815   1.239       .  S
H813        C815   1.081       .  S
H814        C817   1.081       .  S
O819       Mg826   2.294       .  S
C822        O827   1.274       .  A
C822       C1989   1.491       .  S
O823        C824   1.271       .  A
C824       C1138   1.480       .  S
O829       Mg831   2.152       .  S
O829       Mg837   2.140       .  S
O829        C864   1.239       .  S
C830        O843   1.240   1_655  S
C830        O867   1.273       .  A
C830        H869   1.081       .  S
Mg831       O860   2.142   1_455  S
Mg831       O875   2.351       .  S
Mg831       O871   2.276       .  S
Mg831       O842   2.308       .  S
O832       Mg874   2.145   1_455  S
O832       Mg857   2.138       .  S
O832        C853   1.239       .  S
O833        C864   1.273       .  A
O833       Mg857   2.308       .  S
C834        O836   1.275       .  A
C834        O848   1.279       .  A
C834       C1941   1.483       .  S
O835        C863   1.275       .  A
O835       Mg837   2.316   1_655  S
O836       Mg868   2.283       .  S
Mg837       O843   2.137       .  S
Mg837       O851   2.261       .  S
Mg837       O839   2.340       .  S
C838        O876   1.276       .  A
C838        O844   1.278       .  A
C838       C2341   1.485       .  S
O839        C846   1.278       .  A
H840        C853   1.081       .  S
C841        O855   1.239       .  S
C841        O856   1.273       .  A
C841        H866   1.081       .  S
O842        C865   1.273   1_455  A
O843       Mg857   2.147       .  S
O844       Mg874   2.330       .  S
C845        O858   1.274   1_455  A
C845        O850   1.279       .  A
C845       C1106   1.486       .  S
C846        O873   1.275       .  A
C846       C1826   1.496       .  S
Mg847       O854   2.146       .  S
Mg847       O855   2.146       .  S
Mg847       O848   2.341       .  S
Mg847       O849   2.297       .  S
Mg847       O876   2.280       .  S
O849        C853   1.272   1_655  A
O850       Mg857   2.339       .  S
O851        C870   1.272       .  A
O852        C872   1.279       .  A
O852       Mg868   2.346       .  S
O854       Mg868   2.138       .  S
O854        C865   1.238       .  S
O855       Mg874   2.148       .  S
O856       Mg868   2.303       .  S
Mg857       O873   2.285       .  S
O858       Mg874   2.277       .  S
H859        C864   1.081       .  S
O860       Mg868   2.165       .  S
O860        C863   1.240       .  S
H861        C863   1.081       .  S
H862        C865   1.081       .  S
O867       Mg874   2.299       .  S
C870        O875   1.279       .  A
C870       C1122   1.492       .  S
O871        C872   1.275   1_455  A
C872       C1397   1.488       .  S
O877       Mg879   2.124       .  S
O877       Mg885   2.149   1_655  S
O877        C912   1.238       .  S
C878        O891   1.239       .  S
C878        O915   1.274       .  A
C878        H917   1.081       .  S
Mg879       O908   2.138       .  S
Mg879       O923   2.297       .  S
Mg879       O919   2.257       .  S
Mg879       O890   2.299   1_556  S
O880       Mg922   2.146       .  S
O880       Mg905   2.141       .  S
O880        C901   1.239       .  S
O881        C912   1.272   1_554  A
O881       Mg905   2.297   1_655  S
C882        O884   1.272       .  A
C882        O896   1.275   1_655  A
C882       C1765   1.480       .  S
O883        C911   1.270   1_455  A
O883       Mg885   2.295       .  S
O884       Mg916   2.255   1_554  S
Mg885       O891   2.138       .  S
Mg885       O899   2.290   1_455  S
Mg885       O887   2.311       .  S
C886        O924   1.273       .  A
C886        O892   1.277       .  A
C886       C1090   1.480       .  S
O887        C894   1.276       .  A
H888        C901   1.081       .  S
C889        O903   1.238       .  S
C889        O904   1.272   1_554  A
C889        H914   1.081       .  S
O890        C913   1.272       .  A
O891       Mg905   2.143   1_556  S
O892       Mg922   2.323       .  S
C893        O906   1.269       .  A
C893        O898   1.275       .  A
C893       C1285   1.487       .  S
C894        O921   1.273       .  A
C894       C1525   1.476       .  S
Mg895       O902   2.132   1_455  S
Mg895       O903   2.136       .  S
Mg895       O896   2.309       .  S
Mg895       O897   2.305       .  S
Mg895       O924   2.282       .  S
O897        C901   1.273       .  A
O898       Mg905   2.283       .  S
O899        C918   1.274       .  A
O900        C920   1.275       .  A
O900       Mg916   2.302       .  S
O902       Mg916   2.142   1_554  S
O902        C913   1.238       .  S
O903       Mg922   2.116       .  S
O904       Mg916   2.296   1_455  S
Mg905       O921   2.282   1_554  S
O906       Mg922   2.259       .  S
H907        C912   1.081       .  S
O908       Mg916   2.128       .  S
O908        C911   1.237       .  S
H909        C911   1.081       .  S
H910        C913   1.081       .  S
O915       Mg922   2.310   1_556  S
C918        O923   1.276       .  A
C918       C2357   1.493       .  S
O919        C920   1.270       .  A
C920       C2178   1.473       .  S
C925        C926   1.534       .  S
C925        C931   1.532       .  S
C925        C929   1.563       .  S
C925       C1317   1.554       .  S
C926        H933   1.087       .  S
C926        C927   1.363       .  D
C927        C928   1.543       .  S
C927       C1093   1.492       .  S
C928        C932   1.552       .  S
C928        C930   1.540       .  S
C928        H934   1.110       .  S
C929        H935   1.076       .  S
C929        C930   1.378       .  D
C930       C1733   1.503       .  S
C931        H936   1.087       .  S
C931        C932   1.359       .  D
C932       C1125   1.492       .  S
O937       Mg939   2.134       .  S
O937       Mg945   2.143       .  S
O937        C972   1.238       .  S
C938        O951   1.237       .  S
C938        O975   1.272       .  A
C938        H977   1.081       .  S
Mg939       O968   2.144       .  S
Mg939       O983   2.321       .  S
Mg939       O979   2.245       .  S
Mg939       O950   2.296       .  S
O940       Mg982   2.137       .  S
O940       Mg965   2.126       .  S
O940        C961   1.237       .  S
O941        C972   1.273       .  A
O941       Mg965   2.304       .  S
C942        O944   1.270       .  A
C942        O956   1.270       .  A
C942       C1925   1.462       .  S
O943        C971   1.270       .  A
O943       Mg945   2.297       .  S
O944       Mg976   2.252       .  S
Mg945       O951   2.165       .  S
Mg945       O959   2.297       .  S
Mg945       O947   2.334       .  S
C946        O984   1.270       .  A
C946        O952   1.275       .  A
C946       C1877   1.477       .  S
O947        C954   1.278       .  A
H948        C961   1.081       .  S
C949        O963   1.238       .  S
C949        O964   1.271       .  A
C949        H974   1.081       .  S
O950        C973   1.271       .  A
O951       Mg965   2.142       .  S
O952       Mg982   2.315       .  S
C953        O966   1.271       .  A
C953        O958   1.279       .  A
C953       C2146   1.483       .  S
C954        O981   1.270       .  A
C954       C1813   1.476       .  S
Mg955       O962   2.131       .  S
Mg955       O963   2.149       .  S
Mg955       O956   2.278       .  S
Mg955       O957   2.291       .  S
Mg955       O984   2.249       .  S
O957        C961   1.270       .  A
O958       Mg965   2.346       .  S
O959        C978   1.277       .  A
O960        C980   1.272       .  A
O960       Mg976   2.300       .  S
O962       Mg976   2.148       .  S
O962        C973   1.237       .  S
O963       Mg982   2.122       .  S
O964       Mg976   2.294       .  S
Mg965       O981   2.220       .  S
O966       Mg982   2.253       .  S
H967        C972   1.081       .  S
O968       Mg976   2.135       .  S
O968        C971   1.237       .  S
H969        C971   1.081       .  S
H970        C973   1.081       .  S
O975       Mg982   2.308       .  S
C978        O983   1.275       .  A
C978       C2005   1.484       .  S
O979        C980   1.273       .  A
C980       C1605   1.479       .  S
C985        C986   1.536   1_655  S
C985        C991   1.525       .  S
C985        C989   1.552       .  S
C985       C1218   1.546       .  S
C986        H993   1.085       .  S
C986        C987   1.359       .  D
C987        C988   1.556   1_455  S
C987       C1074   1.491       .  S
C988        C992   1.555       .  S
C988        C990   1.539       .  S
C988        H994   1.107       .  S
C989        H995   1.082       .  S
C989        C990   1.376       .  D
C990       C1109   1.507       .  S
C991        H996   1.083       .  S
C991        C992   1.362       .  D
C992       C2581   1.496       .  S
O997       Mg999   2.147       .  S
O997      Mg1005   2.152       .  S
O997       C1032   1.239       .  S
C998       O1011   1.238       .  S
C998       O1035   1.271       .  A
C998       H1037   1.081       .  S
Mg999      O1028   2.138       .  S
Mg999      O1043   2.289       .  S
Mg999      O1039   2.284       .  S
Mg999      O1010   2.297       .  S
O1000     Mg1042   2.143       .  S
O1000     Mg1025   2.127       .  S
O1000      C1021   1.239       .  S
O1001      C1032   1.274       .  A
O1001     Mg1025   2.308       .  S
C1002      O1004   1.271       .  A
C1002      O1016   1.274       .  A
C1002      C1058   1.475       .  S
O1003      C1031   1.273       .  A
O1003     Mg1005   2.302       .  S
O1004     Mg1036   2.243       .  S
Mg1005     O1011   2.131       .  S
Mg1005     O1019   2.276       .  S
Mg1005     O1007   2.333       .  S
C1006      O1044   1.270       .  A
C1006      O1012   1.279       .  A
C1006      C1957   1.477       .  S
O1007      C1014   1.279       .  A
H1008      C1021   1.081       .  S
C1009      O1023   1.237       .  S
C1009      O1024   1.272       .  A
C1009      H1034   1.081       .  S
O1010      C1033   1.270       .  A
O1011     Mg1025   2.134       .  S
O1012     Mg1042   2.342       .  S
C1013      O1026   1.276       .  A
C1013      O1018   1.274       .  A
C1013      C1797   1.481       .  S
C1014      O1041   1.270       .  A
C1014      C1077   1.482       .  S
Mg1015     O1022   2.134       .  S
Mg1015     O1023   2.134       .  S
Mg1015     O1016   2.310       .  S
Mg1015     O1017   2.297       .  S
Mg1015     O1044   2.234       .  S
O1017      C1021   1.272       .  A
O1018     Mg1025   2.305       .  S
O1019      C1038   1.274       .  A
O1020      C1040   1.277       .  A
O1020     Mg1036   2.338       .  S
O1022     Mg1036   2.140       .  S
O1022      C1033   1.237       .  S
O1023     Mg1042   2.140       .  S
O1024     Mg1036   2.303       .  S
Mg1025     O1041   2.256       .  S
O1026     Mg1042   2.280       .  S
H1027      C1032   1.081       .  S
O1028     Mg1036   2.124       .  S
O1028      C1031   1.239       .  S
H1029      C1031   1.081       .  S
H1030      C1033   1.081       .  S
O1035     Mg1042   2.299       .  S
C1038      O1043   1.272       .  A
C1038      C2069   1.477       .  S
O1039      C1040   1.274       .  A
C1040      C1653   1.489       .  S
C1045      C1046   1.525       .  S
C1045      C1051   1.524       .  S
C1045      C1049   1.560       .  S
C1045      C1061   1.538       .  S
C1046      H1053   1.083       .  S
C1046      C1047   1.364       .  D
C1047      C1048   1.550       .  S
C1047      C1173   1.507       .  S
C1048      C1052   1.545       .  S
C1048      C1050   1.549       .  S
C1048      H1054   1.103       .  S
C1049      H1055   1.078       .  S
C1049      C1050   1.378       .  D
C1050      C2533   1.498       .  S
C1051      H1056   1.087       .  S
C1051      C1052   1.353       .  D
C1052      C1141   1.492       .  S
C1057      H1064   1.085       .  S
C1057      C1058   1.393       .  A
C1057      C1062   1.403       .  A
C1058      C1059   1.413       .  A
C1059      C1066   1.520       .  S
C1059      C1060   1.408       .  A
C1060      H1065   1.075       .  S
C1060      C1061   1.412       .  A
C1061      C1062   1.442       .  A
C1062      C1063   1.534       .  S
C1063      F1067   1.382       .  S
C1063      F1068   1.377       .  S
C1063      F1069   1.386       .  S
C1066      F1070   1.383       .  S
C1066      F1071   1.383       .  S
C1066      F1072   1.385       .  S
C1073      H1080   1.082       .  S
C1073      C1074   1.407       .  A
C1073      C1078   1.406       .  A
C1074      C1075   1.416       .  A
C1075      C1082   1.512       .  S
C1075      C1076   1.407       .  A
C1076      H1081   1.083       .  S
C1076      C1077   1.402       .  A
C1077      C1078   1.417       .  A
C1078      C1079   1.517       .  S
C1079      F1083   1.385       .  S
C1079      F1084   1.378       .  S
C1079      F1085   1.383       .  S
C1082      F1086   1.380       .  S
C1082      F1087   1.382       .  S
C1082      F1088   1.385       .  S
C1089      H1096   1.084       .  S
C1089      C1090   1.401       .  A
C1089      C1094   1.407       .  A
C1090      C1091   1.414       .  A
C1091      C1098   1.515       .  S
C1091      C1092   1.413       .  A
C1092      H1097   1.082       .  S
C1092      C1093   1.407       .  A
C1093      C1094   1.417       .  A
C1094      C1095   1.514       .  S
C1095      F1099   1.385       .  S
C1095      F1100   1.383       .  S
C1095      F1101   1.381       .  S
C1098      F1102   1.383       .  S
C1098      F1103   1.383       .  S
C1098      F1104   1.384       .  S
C1105      H1112   1.083       .  S
C1105      C1106   1.403   1_655  A
C1105      C1110   1.414       .  A
C1106      C1107   1.411       .  A
C1107      C1114   1.517       .  S
C1107      C1108   1.410       .  A
C1108      H1113   1.080       .  S
C1108      C1109   1.410   1_455  A
C1109      C1110   1.425       .  A
C1110      C1111   1.518       .  S
C1111      F1115   1.385       .  S
C1111      F1116   1.380       .  S
C1111      F1117   1.378       .  S
C1114      F1118   1.383       .  S
C1114      F1119   1.383       .  S
C1114      F1120   1.384       .  S
C1121      H1128   1.085       .  S
C1121      C1122   1.402       .  A
C1121      C1126   1.405       .  A
C1122      C1123   1.420       .  A
C1123      C1130   1.517       .  S
C1123      C1124   1.415       .  A
C1124      H1129   1.082       .  S
C1124      C1125   1.405       .  A
C1125      C1126   1.425       .  A
C1126      C1127   1.520       .  S
C1127      F1131   1.384       .  S
C1127      F1132   1.374       .  S
C1127      F1133   1.383       .  S
C1130      F1134   1.383       .  S
C1130      F1135   1.383       .  S
C1130      F1136   1.384       .  S
C1137      H1144   1.085       .  S
C1137      C1138   1.397       .  A
C1137      C1142   1.401       .  A
C1138      C1139   1.418       .  A
C1139      C1146   1.516       .  S
C1139      C1140   1.414       .  A
C1140      H1145   1.083       .  S
C1140      C1141   1.403       .  A
C1141      C1142   1.427       .  A
C1142      C1143   1.520       .  S
C1143      F1147   1.385       .  S
C1143      F1148   1.376       .  S
C1143      F1149   1.383       .  S
C1146      F1150   1.382       .  S
C1146      F1151   1.384       .  S
C1146      F1152   1.384       .  S
C1153      H1160   1.084       .  S
C1153      C1154   1.414       .  A
C1153      C1158   1.412       .  A
C1154      C1155   1.427       .  A
C1155      C1162   1.523       .  S
C1155      C1156   1.407       .  A
C1156      H1161   1.081       .  S
C1156      C1157   1.405       .  A
C1157      C1158   1.415       .  A
C1158      C1159   1.518       .  S
C1159      F1163   1.383       .  S
C1159      F1164   1.382       .  S
C1159      F1165   1.384       .  S
C1162      F1166   1.383       .  S
C1162      F1167   1.383       .  S
C1162      F1168   1.385       .  S
C1169      H1176   1.082       .  S
C1169      C1170   1.405       .  A
C1169      C1174   1.410       .  A
C1170      C1171   1.424       .  A
C1171      C1178   1.523       .  S
C1171      C1172   1.408       .  A
C1172      H1177   1.083       .  S
C1172      C1173   1.408       .  A
C1173      C1174   1.423       .  A
C1174      C1175   1.515       .  S
C1175      F1179   1.385       .  S
C1175      F1180   1.372       .  S
C1175      F1181   1.380       .  S
C1178      F1182   1.383       .  S
C1178      F1183   1.383       .  S
C1178      F1184   1.385       .  S
C1185      H1192   1.079       .  S
C1185      C1186   1.409       .  A
C1185      C1190   1.409       .  A
C1186      C1187   1.429       .  A
C1187      C1194   1.514       .  S
C1187      C1188   1.406       .  A
C1188      H1193   1.085       .  S
C1188      C1189   1.400       .  A
C1189      C1190   1.423       .  A
C1190      C1191   1.522       .  S
C1191      F1195   1.385       .  S
C1191      F1196   1.382       .  S
C1191      F1197   1.383       .  S
C1194      F1198   1.383       .  S
C1194      F1199   1.374       .  S
C1194      F1200   1.384       .  S
C1201      H1208   1.083       .  S
C1201      C1202   1.394       .  A
C1201      C1206   1.411       .  A
C1202      C1203   1.418       .  A
C1203      C1210   1.515       .  S
C1203      C1204   1.418       .  A
C1204      H1209   1.083       .  S
C1204      C1205   1.409       .  A
C1205      C1206   1.429       .  A
C1206      C1207   1.508       .  S
C1207      F1211   1.380       .  S
C1207      F1212   1.378       .  S
C1207      F1213   1.385       .  S
C1210      F1214   1.382       .  S
C1210      F1215   1.383       .  S
C1210      F1216   1.384       .  S
C1217      H1224   1.080       .  S
C1217      C1218   1.408   1_455  A
C1217      C1222   1.407       .  A
C1218      C1219   1.424       .  A
C1219      C1226   1.519       .  S
C1219      C1220   1.407       .  A
C1220      H1225   1.084       .  S
C1220      C1221   1.407       .  A
C1221      C1222   1.425   1_655  A
C1222      C1223   1.523       .  S
C1223      F1227   1.385       .  S
C1223      F1228   1.383       .  S
C1223      F1229   1.384       .  S
C1226      F1230   1.383       .  S
C1226      F1231   1.380       .  S
C1226      F1232   1.384       .  S
C1233      H1240   1.086       .  S
C1233      C1234   1.393       .  A
C1233      C1238   1.400       .  A
C1234      C1235   1.418       .  A
C1235      C1242   1.515       .  S
C1235      C1236   1.419       .  A
C1236      H1241   1.083       .  S
C1236      C1237   1.408       .  A
C1237      C1238   1.435       .  A
C1238      C1239   1.519       .  S
C1239      F1243   1.385       .  S
C1239      F1244   1.365       .  S
C1239      F1245   1.384       .  S
C1242      F1246   1.383       .  S
C1242      F1247   1.383       .  S
C1242      F1248   1.384       .  S
C1249      H1256   1.074       .  S
C1249      C1250   1.414       .  A
C1249      C1254   1.412       .  A
C1250      C1251   1.440       .  A
C1251      C1258   1.530       .  S
C1251      C1252   1.397       .  A
C1252      H1257   1.086       .  S
C1252      C1253   1.392       .  A
C1253      C1254   1.417       .  A
C1254      C1255   1.521       .  S
C1255      F1259   1.385       .  S
C1255      F1260   1.383       .  S
C1255      F1261   1.383       .  S
C1258      F1262   1.384       .  S
C1258      F1263   1.369       .  S
C1258      F1264   1.384   1_545  S
C1265      H1272   1.083       .  S
C1265      C1266   1.409   1_565  A
C1265      C1270   1.408       .  A
C1266      C1267   1.422       .  A
C1267      C1274   1.521       .  S
C1267      C1268   1.410       .  A
C1268      H1273   1.083       .  S
C1268      C1269   1.404   1_545  A
C1269      C1270   1.412       .  A
C1270      C1271   1.515       .  S
C1271      F1275   1.385       .  S
C1271      F1276   1.383       .  S
C1271      F1277   1.379       .  S
C1274      F1278   1.381       .  S
C1274      F1279   1.381       .  S
C1274      F1280   1.385       .  S
C1281      H1288   1.074       .  S
C1281      C1282   1.411       .  A
C1281      C1286   1.409       .  A
C1282      C1283   1.440       .  A
C1283      C1290   1.537   1_554  S
C1283      C1284   1.401       .  A
C1284      H1289   1.082       .  S
C1284      C1285   1.398       .  A
C1285      C1286   1.419       .  A
C1286      C1287   1.521       .  S
C1287      F1291   1.385       .  S
C1287      F1292   1.383       .  S
C1287      F1293   1.384       .  S
C1290      F1294   1.385       .  S
C1290      F1295   1.378   1_556  S
C1290      F1296   1.381       .  S
C1297      H1304   1.082       .  S
C1297      C1298   1.406       .  A
C1297      C1302   1.400       .  A
C1298      C1299   1.425   1_554  A
C1299      C1306   1.520       .  S
C1299      C1300   1.411       .  A
C1300      H1305   1.081       .  S
C1300      C1301   1.403   1_556  A
C1301      C1302   1.419       .  A
C1302      C1303   1.515       .  S
C1303      F1307   1.374       .  S
C1303      F1308   1.376       .  S
C1303      F1309   1.386       .  S
C1306      F1310   1.383       .  S
C1306      F1311   1.383       .  S
C1306      F1312   1.385       .  S
C1313      H1320   1.085       .  S
C1313      C1314   1.401       .  A
C1313      C1318   1.410       .  A
C1314      C1315   1.421       .  A
C1315      C1322   1.521       .  S
C1315      C1316   1.415       .  A
C1316      H1321   1.073       .  S
C1316      C1317   1.415       .  A
C1317      C1318   1.440       .  A
C1318      C1319   1.530       .  S
C1319      F1323   1.384       .  S
C1319      F1324   1.372       .  S
C1319      F1325   1.383       .  S
C1322      F1326   1.383       .  S
C1322      F1327   1.383       .  S
C1322      F1328   1.385       .  S
C1329      H1336   1.085       .  S
C1329      C1330   1.389       .  A
C1329      C1334   1.408       .  A
C1330      C1331   1.409       .  A
C1331      C1338   1.518       .  S
C1331      C1332   1.410       .  A
C1332      H1337   1.077       .  S
C1332      C1333   1.418       .  A
C1333      C1334   1.445       .  A
C1334      C1335   1.520       .  S
C1335      F1339   1.383       .  S
C1335      F1340   1.386       .  S
C1335      F1341   1.368       .  S
C1338      F1342   1.383       .  S
C1338      F1343   1.383       .  S
C1338      F1344   1.385       .  S
C1345      H1352   1.082       .  S
C1345      C1346   1.403       .  A
C1345      C1350   1.413       .  A
C1346      C1347   1.420       .  A
C1347      C1354   1.518       .  S
C1347      C1348   1.410       .  A
C1348      H1353   1.084       .  S
C1348      C1349   1.409       .  A
C1349      C1350   1.428       .  A
C1350      C1351   1.520       .  S
C1351      F1355   1.385       .  S
C1351      F1356   1.383       .  S
C1351      F1357   1.383       .  S
C1354      F1358   1.382       .  S
C1354      F1359   1.383       .  S
C1354      F1360   1.384       .  S
C1361      H1368   1.085       .  S
C1361      C1362   1.400       .  A
C1361      C1366   1.403       .  A
C1362      C1363   1.415       .  A
C1363      C1370   1.515       .  S
C1363      C1364   1.413       .  A
C1364      H1369   1.082       .  S
C1364      C1365   1.406       .  A
C1365      C1366   1.418       .  A
C1366      C1367   1.515       .  S
C1367      F1371   1.384       .  S
C1367      F1372   1.381       .  S
C1367      F1373   1.383       .  S
C1370      F1374   1.382       .  S
C1370      F1375   1.383       .  S
C1370      F1376   1.385       .  S
C1377      H1384   1.083       .  S
C1377      C1378   1.406       .  A
C1377      C1382   1.414       .  A
C1378      C1379   1.432       .  A
C1379      C1386   1.534       .  S
C1379      C1380   1.399       .  A
C1380      H1385   1.082       .  S
C1380      C1381   1.403       .  A
C1381      C1382   1.422       .  A
C1382      C1383   1.518       .  S
C1383      F1387   1.385       .  S
C1383      F1388   1.383       .  S
C1383      F1389   1.383       .  S
C1386      F1390   1.382       .  S
C1386      F1391   1.378       .  S
C1386      F1392   1.385       .  S
C1393      H1400   1.083       .  S
C1393      C1394   1.405       .  A
C1393      C1398   1.417       .  A
C1394      C1395   1.426       .  A
C1395      C1402   1.520       .  S
C1395      C1396   1.404       .  A
C1396      H1401   1.085       .  S
C1396      C1397   1.397       .  A
C1397      C1398   1.419       .  A
C1398      C1399   1.516       .  S
C1399      F1403   1.384       .  S
C1399      F1404   1.382       .  S
C1399      F1405   1.383   1_655  S
C1402      F1406   1.376       .  S
C1402      F1407   1.383   1_655  S
C1402      F1408   1.384       .  S
C1409      H1416   1.081       .  S
C1409      C1410   1.412       .  A
C1409      C1414   1.412       .  A
C1410      C1411   1.430   1_455  A
C1411      C1418   1.518       .  S
C1411      C1412   1.411       .  A
C1412      H1417   1.081       .  S
C1412      C1413   1.406   1_655  A
C1413      C1414   1.425       .  A
C1414      C1415   1.522       .  S
C1415      F1419   1.385       .  S
C1415      F1420   1.383       .  S
C1415      F1421   1.384       .  S
C1418      F1422   1.371       .  S
C1418      F1423   1.382       .  S
C1418      F1424   1.385       .  S
C1425      H1432   1.081       .  S
C1425      C1426   1.412       .  A
C1425      C1430   1.406       .  A
C1426      C1427   1.427       .  A
C1427      C1434   1.520       .  S
C1427      C1428   1.411       .  A
C1428      H1433   1.085       .  S
C1428      C1429   1.405       .  A
C1429      C1430   1.418       .  A
C1430      C1431   1.522       .  S
C1431      F1435   1.385       .  S
C1431      F1436   1.383       .  S
C1431      F1437   1.384       .  S
C1434      F1438   1.381       .  S
C1434      F1439   1.383       .  S
C1434      F1440   1.385       .  S
C1441      H1448   1.078       .  S
C1441      C1442   1.413       .  A
C1441      C1446   1.401       .  A
C1442      C1443   1.432       .  A
C1443      C1450   1.520   1_545  S
C1443      C1444   1.416   1_545  A
C1444      H1449   1.083       .  S
C1444      C1445   1.403   1_565  A
C1445      C1446   1.412       .  A
C1446      C1447   1.523       .  S
C1447      F1451   1.385       .  S
C1447      F1452   1.384       .  S
C1447      F1453   1.382       .  S
C1450      F1454   1.379       .  S
C1450      F1455   1.382   1_565  S
C1450      F1456   1.385       .  S
C1457      H1464   1.072       .  S
C1457      C1458   1.416       .  A
C1457      C1462   1.412       .  A
C1458      C1459   1.442       .  A
C1459      C1466   1.532       .  S
C1459      C1460   1.405       .  A
C1460      H1465   1.086       .  S
C1460      C1461   1.396       .  A
C1461      C1462   1.414       .  A
C1462      C1463   1.520       .  S
C1463      F1467   1.385       .  S
C1463      F1468   1.383       .  S
C1463      F1469   1.383       .  S
C1466      F1470   1.384   1_545  S
C1466      F1471   1.373   1_545  S
C1466      F1472   1.385       .  S
C1473      H1480   1.079       .  S
C1473      C1474   1.408       .  A
C1473      C1478   1.405       .  A
C1474      C1475   1.414       .  A
C1475      C1482   1.517       .  S
C1475      C1476   1.410       .  A
C1476      H1481   1.083       .  S
C1476      C1477   1.405       .  A
C1477      C1478   1.409       .  A
C1478      C1479   1.516       .  S
C1479      F1483   1.385       .  S
C1479      F1484   1.383       .  S
C1479      F1485   1.383       .  S
C1482      F1486   1.382       .  S
C1482      F1487   1.383       .  S
C1482      F1488   1.384       .  S
C1489      H1496   1.082       .  S
C1489      C1490   1.397       .  A
C1489      C1494   1.403       .  A
C1490      C1491   1.420       .  A
C1491      C1498   1.520       .  S
C1491      C1492   1.414       .  A
C1492      H1497   1.082       .  S
C1492      C1493   1.410       .  A
C1493      C1494   1.433       .  A
C1494      C1495   1.527       .  S
C1495      F1499   1.385       .  S
C1495      F1500   1.384       .  S
C1495      F1501   1.383       .  S
C1498      F1502   1.383       .  S
C1498      F1503   1.381       .  S
C1498      F1504   1.385       .  S
C1505      H1512   1.085       .  S
C1505      C1506   1.392       .  A
C1505      C1510   1.401       .  A
C1506      C1507   1.415       .  A
C1507      C1514   1.516       .  S
C1507      C1508   1.410       .  A
C1508      H1513   1.083       .  S
C1508      C1509   1.403       .  A
C1509      C1510   1.427       .  A
C1510      C1511   1.516       .  S
C1511      F1515   1.384       .  S
C1511      F1516   1.371       .  S
C1511      F1517   1.383       .  S
C1514      F1518   1.383       .  S
C1514      F1519   1.383       .  S
C1514      F1520   1.384       .  S
C1521      H1528   1.083       .  S
C1521      C1522   1.404       .  A
C1521      C1526   1.411       .  A
C1522      C1523   1.416   1_455  A
C1523      C1530   1.517       .  S
C1523      C1524   1.403       .  A
C1524      H1529   1.085       .  S
C1524      C1525   1.401   1_655  A
C1525      C1526   1.415       .  A
C1526      C1527   1.516       .  S
C1527      F1531   1.385       .  S
C1527      F1532   1.383       .  S
C1527      F1533   1.383       .  S
C1530      F1534   1.384       .  S
C1530      F1535   1.382       .  S
C1530      F1536   1.384       .  S
C1537      H1544   1.083       .  S
C1537      C1538   1.404       .  A
C1537      C1542   1.412       .  A
C1538      C1539   1.423   1_655  A
C1539      C1546   1.523       .  S
C1539      C1540   1.406       .  A
C1540      H1545   1.084       .  S
C1540      C1541   1.399   1_455  A
C1541      C1542   1.416       .  A
C1542      C1543   1.516       .  S
C1543      F1547   1.385       .  S
C1543      F1548   1.383   1_655  S
C1543      F1549   1.383       .  S
C1546      F1550   1.380       .  S
C1546      F1551   1.381   1_455  S
C1546      F1552   1.385       .  S
C1553      H1560   1.083       .  S
C1553      C1554   1.404       .  A
C1553      C1558   1.412       .  A
C1554      C1555   1.414       .  A
C1555      C1562   1.516       .  S
C1555      C1556   1.410       .  A
C1556      H1561   1.082       .  S
C1556      C1557   1.408       .  A
C1557      C1558   1.423       .  A
C1558      C1559   1.521       .  S
C1559      F1563   1.385       .  S
C1559      F1564   1.382       .  S
C1559      F1565   1.380       .  S
C1562      F1566   1.383       .  S
C1562      F1567   1.379       .  S
C1562      F1568   1.385       .  S
C1569      H1576   1.082       .  S
C1569      C1570   1.411       .  A
C1569      C1574   1.405       .  A
C1570      C1571   1.427       .  A
C1571      C1578   1.520       .  S
C1571      C1572   1.412       .  A
C1572      H1577   1.083       .  S
C1572      C1573   1.404       .  A
C1573      C1574   1.412       .  A
C1574      C1575   1.510       .  S
C1575      F1579   1.385       .  S
C1575      F1580   1.382       .  S
C1575      F1581   1.379       .  S
C1578      F1582   1.383       .  S
C1578      F1583   1.383       .  S
C1578      F1584   1.385       .  S
C1585      H1592   1.085       .  S
C1585      C1586   1.400       .  A
C1585      C1590   1.406       .  A
C1586      C1587   1.418       .  A
C1587      C1594   1.520       .  S
C1587      C1588   1.410       .  A
C1588      H1593   1.077       .  S
C1588      C1589   1.414       .  A
C1589      C1590   1.431       .  A
C1590      C1591   1.517       .  S
C1591      F1595   1.385       .  S
C1591      F1596   1.383       .  S
C1591      F1597   1.372       .  S
C1594      F1598   1.384       .  S
C1594      F1599   1.382       .  S
C1594      F1600   1.385       .  S
C1601      H1608   1.082       .  S
C1601      C1602   1.404       .  A
C1601      C1606   1.412       .  A
C1602      C1603   1.435       .  A
C1603      C1610   1.531       .  S
C1603      C1604   1.395       .  A
C1604      H1609   1.086       .  S
C1604      C1605   1.395       .  A
C1605      C1606   1.419       .  A
C1606      C1607   1.517       .  S
C1607      F1611   1.384       .  S
C1607      F1612   1.383       .  S
C1607      F1613   1.383       .  S
C1610      F1614   1.385       .  S
C1610      F1615   1.376       .  S
C1610      F1616   1.383       .  S
C1617      H1624   1.083       .  S
C1617      C1618   1.402       .  A
C1617      C1622   1.402       .  A
C1618      C1619   1.412       .  A
C1619      C1626   1.514       .  S
C1619      C1620   1.412       .  A
C1620      H1625   1.083       .  S
C1620      C1621   1.406       .  A
C1621      C1622   1.422       .  A
C1622      C1623   1.521       .  S
C1623      F1627   1.385       .  S
C1623      F1628   1.381       .  S
C1623      F1629   1.384       .  S
C1626      F1630   1.383       .  S
C1626      F1631   1.381       .  S
C1626      F1632   1.384       .  S
C1633      H1640   1.078       .  S
C1633      C1634   1.413       .  A
C1633      C1638   1.412       .  A
C1634      C1635   1.447       .  A
C1635      C1642   1.538       .  S
C1635      C1636   1.401       .  A
C1636      H1641   1.083       .  S
C1636      C1637   1.391       .  A
C1637      C1638   1.411       .  A
C1638      C1639   1.516       .  S
C1639      F1643   1.384       .  S
C1639      F1644   1.383       .  S
C1639      F1645   1.383       .  S
C1642      F1646   1.381       .  S
C1642      F1647   1.378       .  S
C1642      F1648   1.386       .  S
C1649      H1656   1.075       .  S
C1649      C1650   1.418       .  A
C1649      C1654   1.417       .  A
C1650      C1651   1.445       .  A
C1651      C1658   1.529       .  S
C1651      C1652   1.410       .  A
C1652      H1657   1.084       .  S
C1652      C1653   1.392       .  A
C1653      C1654   1.412       .  A
C1654      C1655   1.518       .  S
C1655      F1659   1.384       .  S
C1655      F1660   1.382       .  S
C1655      F1661   1.384       .  S
C1658      F1662   1.375       .  S
C1658      F1663   1.379       .  S
C1658      F1664   1.386       .  S
C1665      H1672   1.083       .  S
C1665      C1666   1.406       .  A
C1665      C1670   1.417       .  A
C1666      C1667   1.429       .  A
C1667      C1674   1.526   1_554  S
C1667      C1668   1.405       .  A
C1668      H1673   1.084       .  S
C1668      C1669   1.405       .  A
C1669      C1670   1.428       .  A
C1670      C1671   1.520       .  S
C1671      F1675   1.385       .  S
C1671      F1676   1.383       .  S
C1671      F1677   1.383       .  S
C1674      F1678   1.383       .  S
C1674      F1679   1.376       .  S
C1674      F1680   1.385   1_556  S
C1681      H1688   1.081       .  S
C1681      C1682   1.398       .  A
C1681      C1686   1.414       .  A
C1682      C1683   1.416   1_554  A
C1683      C1690   1.514       .  S
C1683      C1684   1.407       .  A
C1684      H1689   1.084       .  S
C1684      C1685   1.410   1_556  A
C1685      C1686   1.432       .  A
C1686      C1687   1.512       .  S
C1687      F1691   1.385       .  S
C1687      F1692   1.375       .  S
C1687      F1693   1.383       .  S
C1690      F1694   1.382       .  S
C1690      F1695   1.381       .  S
C1690      F1696   1.383       .  S
C1697      H1704   1.083       .  S
C1697      C1698   1.400       .  A
C1697      C1702   1.408       .  A
C1698      C1699   1.426       .  A
C1699      C1706   1.520       .  S
C1699      C1700   1.419       .  A
C1700      H1705   1.083       .  S
C1700      C1701   1.407       .  A
C1701      C1702   1.423       .  A
C1702      C1703   1.512       .  S
C1703      F1707   1.385       .  S
C1703      F1708   1.375       .  S
C1703      F1709   1.377       .  S
C1706      F1710   1.383       .  S
C1706      F1711   1.382       .  S
C1706      F1712   1.385       .  S
C1713      H1720   1.085       .  S
C1713      C1714   1.401       .  A
C1713      C1718   1.403       .  A
C1714      C1715   1.424       .  A
C1715      C1722   1.517       .  S
C1715      C1716   1.415       .  A
C1716      H1721   1.083       .  S
C1716      C1717   1.402       .  A
C1717      C1718   1.424       .  A
C1718      C1719   1.520       .  S
C1719      F1723   1.385       .  S
C1719      F1724   1.378       .  S
C1719      F1725   1.383       .  S
C1722      F1726   1.383       .  S
C1722      F1727   1.383       .  S
C1722      F1728   1.385       .  S
C1729      H1736   1.084       .  S
C1729      C1730   1.401       .  A
C1729      C1734   1.411       .  A
C1730      C1731   1.410       .  A
C1731      C1738   1.517       .  S
C1731      C1732   1.408       .  A
C1732      H1737   1.082       .  S
C1732      C1733   1.411       .  A
C1733      C1734   1.425       .  A
C1734      C1735   1.520       .  S
C1735      F1739   1.385       .  S
C1735      F1740   1.382       .  S
C1735      F1741   1.381       .  S
C1738      F1742   1.383       .  S
C1738      F1743   1.383       .  S
C1738      F1744   1.385       .  S
C1745      H1752   1.083       .  S
C1745      C1746   1.405       .  A
C1745      C1750   1.412       .  A
C1746      C1747   1.417       .  A
C1747      C1754   1.509       .  S
C1747      C1748   1.407       .  A
C1748      H1753   1.082       .  S
C1748      C1749   1.405       .  A
C1749      C1750   1.427       .  A
C1750      C1751   1.522       .  S
C1751      F1755   1.385       .  S
C1751      F1756   1.383       .  S
C1751      F1757   1.384       .  S
C1754      F1758   1.381       .  S
C1754      F1759   1.378       .  S
C1754      F1760   1.385       .  S
C1761      H1768   1.078       .  S
C1761      C1762   1.411   1_455  A
C1761      C1766   1.407       .  A
C1762      C1763   1.431       .  A
C1763      C1770   1.520       .  S
C1763      C1764   1.404       .  A
C1764      H1769   1.085       .  S
C1764      C1765   1.399       .  A
C1765      C1766   1.417   1_655  A
C1766      C1767   1.520       .  S
C1767      F1771   1.384       .  S
C1767      F1772   1.383       .  S
C1767      F1773   1.382       .  S
C1770      F1774   1.375       .  S
C1770      F1775   1.383       .  S
C1770      F1776   1.384       .  S
C1777      H1784   1.081       .  S
C1777      C1778   1.402   1_455  A
C1777      C1782   1.409       .  A
C1778      C1779   1.421       .  A
C1779      C1786   1.515       .  S
C1779      C1780   1.407       .  A
C1780      H1785   1.082       .  S
C1780      C1781   1.408   1_655  A
C1781      C1782   1.424       .  A
C1782      C1783   1.510       .  S
C1783      F1787   1.385       .  S
C1783      F1788   1.378       .  S
C1783      F1789   1.383       .  S
C1786      F1790   1.376       .  S
C1786      F1791   1.379       .  S
C1786      F1792   1.385       .  S
C1793      H1800   1.082       .  S
C1793      C1794   1.401       .  A
C1793      C1798   1.410       .  A
C1794      C1795   1.415       .  A
C1795      C1802   1.514       .  S
C1795      C1796   1.403       .  A
C1796      H1801   1.085       .  S
C1796      C1797   1.402       .  A
C1797      C1798   1.418       .  A
C1798      C1799   1.516       .  S
C1799      F1803   1.384       .  S
C1799      F1804   1.378       .  S
C1799      F1805   1.383       .  S
C1802      F1806   1.383       .  S
C1802      F1807   1.383       .  S
C1802      F1808   1.384       .  S
C1809      H1816   1.075       .  S
C1809      C1810   1.415       .  A
C1809      C1814   1.413       .  A
C1810      C1811   1.441       .  A
C1811      C1818   1.533       .  S
C1811      C1812   1.397       .  A
C1812      H1817   1.087       .  S
C1812      C1813   1.392       .  A
C1813      C1814   1.411       .  A
C1814      C1815   1.518       .  S
C1815      F1819   1.385       .  S
C1815      F1820   1.383       .  S
C1815      F1821   1.384       .  S
C1818      F1822   1.371       .  S
C1818      F1823   1.384       .  S
C1818      F1824   1.385       .  S
C1825      H1832   1.083       .  S
C1825      C1826   1.408       .  A
C1825      C1830   1.413       .  A
C1826      C1827   1.419       .  A
C1827      C1834   1.519       .  S
C1827      C1828   1.412       .  A
C1828      H1833   1.083       .  S
C1828      C1829   1.407       .  A
C1829      C1830   1.420       .  A
C1830      C1831   1.521       .  S
C1831      F1835   1.385       .  S
C1831      F1836   1.381       .  S
C1831      F1837   1.381       .  S
C1834      F1838   1.383       .  S
C1834      F1839   1.382       .  S
C1834      F1840   1.385       .  S
C1841      H1848   1.083       .  S
C1841      C1842   1.401       .  A
C1841      C1846   1.410       .  A
C1842      C1843   1.421       .  A
C1843      C1850   1.520       .  S
C1843      C1844   1.401       .  A
C1844      H1849   1.085       .  S
C1844      C1845   1.401       .  A
C1845      C1846   1.420       .  A
C1846      C1847   1.517       .  S
C1847      F1851   1.385       .  S
C1847      F1852   1.384       .  S
C1847      F1853   1.382       .  S
C1850      F1854   1.381       .  S
C1850      F1855   1.383       .  S
C1850      F1856   1.384       .  S
C1857      H1864   1.079       .  S
C1857      C1858   1.403       .  A
C1857      C1862   1.402       .  A
C1858      C1859   1.414       .  A
C1859      C1866   1.519       .  S
C1859      C1860   1.411       .  A
C1860      H1865   1.082       .  S
C1860      C1861   1.414       .  A
C1861      C1862   1.425       .  A
C1862      C1863   1.524       .  S
C1863      F1867   1.385       .  S
C1863      F1868   1.383       .  S
C1863      F1869   1.384       .  S
C1866      F1870   1.380       .  S
C1866      F1871   1.382       .  S
C1866      F1872   1.384       .  S
C1873      H1880   1.075       .  S
C1873      C1874   1.421       .  A
C1873      C1878   1.401       .  A
C1874      C1875   1.434       .  A
C1875      C1882   1.523       .  S
C1875      C1876   1.414       .  A
C1876      H1881   1.083       .  S
C1876      C1877   1.401       .  A
C1877      C1878   1.407       .  A
C1878      C1879   1.523       .  S
C1879      F1883   1.385       .  S
C1879      F1884   1.383       .  S
C1879      F1885   1.383       .  S
C1882      F1886   1.380       .  S
C1882      F1887   1.381       .  S
C1882      F1888   1.385       .  S
C1889      H1896   1.081       .  S
C1889      C1890   1.403       .  A
C1889      C1894   1.412       .  A
C1890      C1891   1.416       .  A
C1891      C1898   1.518       .  S
C1891      C1892   1.408       .  A
C1892      H1897   1.084       .  S
C1892      C1893   1.412       .  A
C1893      C1894   1.430       .  A
C1894      C1895   1.523       .  S
C1895      F1899   1.385       .  S
C1895      F1900   1.383       .  S
C1895      F1901   1.383       .  S
C1898      F1902   1.383       .  S
C1898      F1903   1.382       .  S
C1898      F1904   1.384       .  S
C1905      H1912   1.083       .  S
C1905      C1906   1.403       .  A
C1905      C1910   1.409       .  A
C1906      C1907   1.417       .  A
C1907      C1914   1.510       .  S
C1907      C1908   1.405       .  A
C1908      H1913   1.083       .  S
C1908      C1909   1.396       .  A
C1909      C1910   1.415       .  A
C1910      C1911   1.516       .  S
C1911      F1915   1.384       .  S
C1911      F1916   1.383       .  S
C1911      F1917   1.383       .  S
C1914      F1918   1.381       .  S
C1914      F1919   1.379       .  S
C1914      F1920   1.384       .  S
C1921      H1928   1.075       .  S
C1921      C1922   1.413       .  A
C1921      C1926   1.404       .  A
C1922      C1923   1.441       .  A
C1923      C1930   1.529       .  S
C1923      C1924   1.401       .  A
C1924      H1929   1.086       .  S
C1924      C1925   1.390       .  A
C1925      C1926   1.407       .  A
C1926      C1927   1.519       .  S
C1927      F1931   1.385       .  S
C1927      F1932   1.384       .  S
C1927      F1933   1.382       .  S
C1930      F1934   1.384       .  S
C1930      F1935   1.374       .  S
C1930      F1936   1.385       .  S
C1937      H1944   1.080       .  S
C1937      C1938   1.412       .  A
C1937      C1942   1.408       .  A
C1938      C1939   1.435       .  A
C1939      C1946   1.523       .  S
C1939      C1940   1.415       .  A
C1940      H1945   1.083       .  S
C1940      C1941   1.399       .  A
C1941      C1942   1.409       .  A
C1942      C1943   1.516       .  S
C1943      F1947   1.385       .  S
C1943      F1948   1.383       .  S
C1943      F1949   1.383       .  S
C1946      F1950   1.382       .  S
C1946      F1951   1.377       .  S
C1946      F1952   1.385       .  S
C1953      H1960   1.075       .  S
C1953      C1954   1.418       .  A
C1953      C1958   1.413       .  A
C1954      C1955   1.443       .  A
C1955      C1962   1.531       .  S
C1955      C1956   1.401       .  A
C1956      H1961   1.087       .  S
C1956      C1957   1.391       .  A
C1957      C1958   1.410       .  A
C1958      C1959   1.518       .  S
C1959      F1963   1.385       .  S
C1959      F1964   1.383       .  S
C1959      F1965   1.383       .  S
C1962      F1966   1.371       .  S
C1962      F1967   1.384       .  S
C1962      F1968   1.384       .  S
C1969      H1976   1.080       .  S
C1969      C1970   1.410       .  A
C1969      C1974   1.408       .  A
C1970      C1971   1.434       .  A
C1971      C1978   1.522       .  S
C1971      C1972   1.417       .  A
C1972      H1977   1.083       .  S
C1972      C1973   1.403       .  A
C1973      C1974   1.418       .  A
C1974      C1975   1.522       .  S
C1975      F1979   1.385       .  S
C1975      F1980   1.383       .  S
C1975      F1981   1.384       .  S
C1978      F1982   1.385       .  S
C1978      F1983   1.382       .  S
C1978      F1984   1.376       .  S
C1985      H1992   1.083       .  S
C1985      C1986   1.403       .  A
C1985      C1990   1.415       .  A
C1986      C1987   1.418       .  A
C1987      C1994   1.510       .  S
C1987      C1988   1.403       .  A
C1988      H1993   1.083       .  S
C1988      C1989   1.400       .  A
C1989      C1990   1.424       .  A
C1990      C1991   1.519       .  S
C1991      F1995   1.384       .  S
C1991      F1996   1.383       .  S
C1991      F1997   1.383       .  S
C1994      F1998   1.378       .  S
C1994      F1999   1.380       .  S
C1994      F2000   1.385       .  S
C2001      H2008   1.082       .  S
C2001      C2002   1.407       .  A
C2001      C2006   1.412       .  A
C2002      C2003   1.415       .  A
C2003      C2010   1.513       .  S
C2003      C2004   1.409       .  A
C2004      H2009   1.084       .  S
C2004      C2005   1.402       .  A
C2005      C2006   1.415       .  A
C2006      C2007   1.516       .  S
C2007      F2011   1.385       .  S
C2007      F2012   1.383       .  S
C2007      F2013   1.383       .  S
C2010      F2014   1.384       .  S
C2010      F2015   1.380       .  S
C2010      F2016   1.385       .  S
C2017      H2024   1.082       .  S
C2017      C2018   1.412       .  A
C2017      C2022   1.407       .  A
C2018      C2019   1.434       .  A
C2019      C2026   1.516       .  S
C2019      C2020   1.407       .  A
C2020      H2025   1.084       .  S
C2020      C2021   1.393       .  A
C2021      C2022   1.411       .  A
C2022      C2023   1.518       .  S
C2023      F2027   1.385       .  S
C2023      F2028   1.382       .  S
C2023      F2029   1.384       .  S
C2026      F2030   1.367       .  S
C2026      F2031   1.386       .  S
C2026      F2032   1.381       .  S
C2033      H2040   1.085       .  S
C2033      C2034   1.398       .  A
C2033      C2038   1.398       .  A
C2034      C2035   1.423       .  A
C2035      C2042   1.517       .  S
C2035      C2036   1.419       .  A
C2036      H2041   1.082       .  S
C2036      C2037   1.406       .  A
C2037      C2038   1.428       .  A
C2038      C2039   1.518       .  S
C2039      F2043   1.382       .  S
C2039      F2044   1.373       .  S
C2039      F2045   1.384   1_556  S
C2042      F2046   1.382       .  S
C2042      F2047   1.384   1_556  S
C2042      F2048   1.384       .  S
C2049      H2056   1.083       .  S
C2049      C2050   1.405   1_556  A
C2049      C2054   1.411       .  A
C2050      C2051   1.416       .  A
C2051      C2058   1.516       .  S
C2051      C2052   1.416       .  A
C2052      H2057   1.082       .  S
C2052      C2053   1.409       .  A
C2053      C2054   1.415   1_554  A
C2054      C2055   1.515       .  S
C2055      F2059   1.384       .  S
C2055      F2060   1.382       .  S
C2055      F2061   1.383       .  S
C2058      F2062   1.383       .  S
C2058      F2063   1.383       .  S
C2058      F2064   1.385       .  S
C2065      H2072   1.076       .  S
C2065      C2066   1.421       .  A
C2065      C2070   1.401       .  A
C2066      C2067   1.435       .  A
C2067      C2074   1.523       .  S
C2067      C2068   1.415       .  A
C2068      H2073   1.083       .  S
C2068      C2069   1.400       .  A
C2069      C2070   1.405       .  A
C2070      C2071   1.523       .  S
C2071      F2075   1.384       .  S
C2071      F2076   1.382       .  S
C2071      F2077   1.384       .  S
C2074      F2078   1.380       .  S
C2074      F2079   1.381       .  S
C2074      F2080   1.385       .  S
C2081      H2088   1.079       .  S
C2081      C2082   1.403       .  A
C2081      C2086   1.406       .  A
C2082      C2083   1.417       .  A
C2083      C2090   1.518       .  S
C2083      C2084   1.416       .  A
C2084      H2089   1.082       .  S
C2084      C2085   1.415       .  A
C2085      C2086   1.428       .  A
C2086      C2087   1.522       .  S
C2087      F2091   1.385       .  S
C2087      F2092   1.383       .  S
C2087      F2093   1.383       .  S
C2090      F2094   1.382       .  S
C2090      F2095   1.380       .  S
C2090      F2096   1.385       .  S
C2097      H2104   1.084       .  S
C2097      C2098   1.411   1_565  A
C2097      C2102   1.407       .  A
C2098      C2099   1.433       .  A
C2099      C2106   1.521       .  S
C2099      C2100   1.414       .  A
C2100      H2105   1.081       .  S
C2100      C2101   1.400       .  A
C2101      C2102   1.416   1_545  A
C2102      C2103   1.517       .  S
C2103      F2107   1.384       .  S
C2103      F2108   1.384       .  S
C2103      F2109   1.383       .  S
C2106      F2110   1.383       .  S
C2106      F2111   1.383       .  S
C2106      F2112   1.385       .  S
C2113      H2120   1.083       .  S
C2113      C2114   1.401       .  A
C2113      C2118   1.414       .  A
C2114      C2115   1.427       .  A
C2115      C2122   1.520       .  S
C2115      C2116   1.403       .  A
C2116      H2121   1.085       .  S
C2116      C2117   1.397       .  A
C2117      C2118   1.422       .  A
C2118      C2119   1.518       .  S
C2119      F2123   1.384       .  S
C2119      F2124   1.383       .  S
C2119      F2125   1.382       .  S
C2122      F2126   1.377       .  S
C2122      F2127   1.383   1_545  S
C2122      F2128   1.384       .  S
C2129      H2136   1.082       .  S
C2129      C2130   1.408       .  A
C2129      C2134   1.412       .  A
C2130      C2131   1.428       .  A
C2131      C2138   1.519       .  S
C2131      C2132   1.420       .  A
C2132      H2137   1.082       .  S
C2132      C2133   1.408       .  A
C2133      C2134   1.422       .  A
C2134      C2135   1.515       .  S
C2135      F2139   1.378       .  S
C2135      F2140   1.379       .  S
C2135      F2141   1.385       .  S
C2138      F2142   1.383       .  S
C2138      F2143   1.383       .  S
C2138      F2144   1.384       .  S
C2145      H2152   1.083       .  S
C2145      C2146   1.403       .  A
C2145      C2150   1.414       .  A
C2146      C2147   1.414       .  A
C2147      C2154   1.520       .  S
C2147      C2148   1.405       .  A
C2148      H2153   1.081       .  S
C2148      C2149   1.408       .  A
C2149      C2150   1.417       .  A
C2150      C2151   1.508       .  S
C2151      F2155   1.381       .  S
C2151      F2156   1.382       .  S
C2151      F2157   1.385       .  S
C2154      F2158   1.383       .  S
C2154      F2159   1.382       .  S
C2154      F2160   1.385       .  S
C2161      H2168   1.079       .  S
C2161      C2162   1.402       .  A
C2161      C2166   1.411       .  A
C2162      C2163   1.420       .  A
C2163      C2170   1.515       .  S
C2163      C2164   1.409       .  A
C2164      H2169   1.083       .  S
C2164      C2165   1.404       .  A
C2165      C2166   1.423       .  A
C2166      C2167   1.516       .  S
C2167      F2171   1.384       .  S
C2167      F2172   1.384       .  S
C2167      F2173   1.381       .  S
C2170      F2174   1.379       .  S
C2170      F2175   1.379       .  S
C2170      F2176   1.385       .  S
C2177      H2184   1.085       .  S
C2177      C2178   1.398   1_554  A
C2177      C2182   1.404       .  A
C2178      C2179   1.410       .  A
C2179      C2186   1.520       .  S
C2179      C2180   1.405       .  A
C2180      H2185   1.077       .  S
C2180      C2181   1.415       .  A
C2181      C2182   1.430   1_556  A
C2182      C2183   1.523       .  S
C2183      F2187   1.384       .  S
C2183      F2188   1.378       .  S
C2183      F2189   1.383       .  S
C2186      F2190   1.382       .  S
C2186      F2191   1.384       .  S
C2186      F2192   1.385       .  S
C2193      H2200   1.081       .  S
C2193      C2194   1.407   1_554  A
C2193      C2198   1.409       .  A
C2194      C2195   1.420       .  A
C2195      C2202   1.521       .  S
C2195      C2196   1.406       .  A
C2196      H2201   1.084       .  S
C2196      C2197   1.402   1_556  A
C2197      C2198   1.414       .  A
C2198      C2199   1.518       .  S
C2199      F2203   1.385       .  S
C2199      F2204   1.382       .  S
C2199      F2205   1.384       .  S
C2202      F2206   1.381       .  S
C2202      F2207   1.382       .  S
C2202      F2208   1.385       .  S
C2209      H2216   1.083       .  S
C2209      C2210   1.401       .  A
C2209      C2214   1.404       .  A
C2210      C2211   1.410       .  A
C2211      C2218   1.512       .  S
C2211      C2212   1.405       .  A
C2212      H2217   1.083       .  S
C2212      C2213   1.404       .  A
C2213      C2214   1.420       .  A
C2214      C2215   1.520       .  S
C2215      F2219   1.385       .  S
C2215      F2220   1.383       .  S
C2215      F2221   1.383       .  S
C2218      F2222   1.385       .  S
C2218      F2223   1.383       .  S
C2218      F2224   1.381       .  S
C2225      H2232   1.083       .  S
C2225      C2226   1.399       .  A
C2225      C2230   1.403       .  A
C2226      C2227   1.420       .  A
C2227      C2234   1.518       .  S
C2227      C2228   1.412       .  A
C2228      H2233   1.083       .  S
C2228      C2229   1.403       .  A
C2229      C2230   1.417       .  A
C2230      C2231   1.513       .  S
C2231      F2235   1.385       .  S
C2231      F2236   1.381       .  S
C2231      F2237   1.380       .  S
C2234      F2238   1.382       .  S
C2234      F2239   1.384       .  S
C2234      F2240   1.385       .  S
C2241      H2248   1.084       .  S
C2241      C2242   1.392       .  A
C2241      C2246   1.405       .  A
C2242      C2243   1.411       .  A
C2243      C2250   1.518       .  S
C2243      C2244   1.412       .  A
C2244      H2249   1.075       .  S
C2244      C2245   1.415       .  A
C2245      C2246   1.445       .  A
C2246      C2247   1.533       .  S
C2247      F2251   1.386       .  S
C2247      F2252   1.376       .  S
C2247      F2253   1.381       .  S
C2250      F2254   1.383       .  S
C2250      F2255   1.383       .  S
C2250      F2256   1.385       .  S
C2257      H2264   1.085       .  S
C2257      C2258   1.394       .  A
C2257      C2262   1.397       .  A
C2258      C2259   1.418       .  A
C2259      C2266   1.516       .  S
C2259      C2260   1.411       .  A
C2260      H2265   1.083       .  S
C2260      C2261   1.402       .  A
C2261      C2262   1.427       .  A
C2262      C2263   1.520       .  S
C2263      F2267   1.385       .  S
C2263      F2268   1.383       .  S
C2263      F2269   1.376       .  S
C2266      F2270   1.383       .  S
C2266      F2271   1.382       .  S
C2266      F2272   1.384       .  S
C2273      H2280   1.079       .  S
C2273      C2274   1.409       .  A
C2273      C2278   1.399       .  A
C2274      C2275   1.415       .  A
C2275      C2282   1.516       .  S
C2275      C2276   1.415       .  A
C2276      H2281   1.083       .  S
C2276      C2277   1.408       .  A
C2277      C2278   1.409       .  A
C2278      C2279   1.520       .  S
C2279      F2283   1.385       .  S
C2279      F2284   1.383       .  S
C2279      F2285   1.382       .  S
C2282      F2286   1.381       .  S
C2282      F2287   1.383       .  S
C2282      F2288   1.385       .  S
C2289      H2296   1.083       .  S
C2289      C2290   1.406       .  A
C2289      C2294   1.415       .  A
C2290      C2291   1.426       .  A
C2291      C2298   1.520       .  S
C2291      C2292   1.402       .  A
C2292      H2297   1.086       .  S
C2292      C2293   1.400       .  A
C2293      C2294   1.420       .  A
C2294      C2295   1.518       .  S
C2295      F2299   1.385       .  S
C2295      F2300   1.383       .  S
C2295      F2301   1.383   1_565  S
C2298      F2302   1.384       .  S
C2298      F2303   1.374       .  S
C2298      F2304   1.384       .  S
C2305      H2312   1.082       .  S
C2305      C2306   1.413       .  A
C2305      C2310   1.407       .  A
C2306      C2307   1.428       .  A
C2307      C2314   1.515       .  S
C2307      C2308   1.417       .  A
C2308      H2313   1.083       .  S
C2308      C2309   1.406       .  A
C2309      C2310   1.418       .  A
C2310      C2311   1.521       .  S
C2311      F2315   1.385       .  S
C2311      F2316   1.383       .  S
C2311      F2317   1.383       .  S
C2314      F2318   1.382       .  S
C2314      F2319   1.373       .  S
C2314      F2320   1.385       .  S
C2321      H2328   1.076       .  S
C2321      C2322   1.413       .  A
C2321      C2326   1.412       .  A
C2322      C2323   1.444       .  A
C2323      C2330   1.536       .  S
C2323      C2324   1.404       .  A
C2324      H2329   1.084       .  S
C2324      C2325   1.393       .  A
C2325      C2326   1.414       .  A
C2326      C2327   1.519       .  S
C2327      F2331   1.385       .  S
C2327      F2332   1.384       .  S
C2327      F2333   1.382       .  S
C2330      F2334   1.377       .  S
C2330      F2335   1.386       .  S
C2330      F2336   1.382       .  S
C2337      H2344   1.082       .  S
C2337      C2338   1.411       .  A
C2337      C2342   1.411       .  A
C2338      C2339   1.428       .  A
C2339      C2346   1.525       .  S
C2339      C2340   1.411       .  A
C2340      H2345   1.083       .  S
C2340      C2341   1.402       .  A
C2341      C2342   1.412       .  A
C2342      C2343   1.517       .  S
C2343      F2347   1.385       .  S
C2343      F2348   1.383       .  S
C2343      F2349   1.383       .  S
C2346      F2350   1.382       .  S
C2346      F2351   1.381       .  S
C2346      F2352   1.385       .  S
C2353      H2360   1.075       .  S
C2353      C2354   1.416       .  A
C2353      C2358   1.415       .  A
C2354      C2355   1.439       .  A
C2355      C2362   1.531       .  S
C2355      C2356   1.404       .  A
C2356      H2361   1.086       .  S
C2356      C2357   1.398       .  A
C2357      C2358   1.417       .  A
C2358      C2359   1.520       .  S
C2359      F2363   1.385   1_655  S
C2359      F2364   1.383       .  S
C2359      F2365   1.383   1_655  S
C2362      F2366   1.373       .  S
C2362      F2367   1.383       .  S
C2362      F2368   1.385       .  S
C2369      H2376   1.083       .  S
C2369      C2370   1.402       .  A
C2369      C2374   1.413       .  A
C2370      C2371   1.418       .  A
C2371      C2378   1.520       .  S
C2371      C2372   1.405       .  A
C2372      H2377   1.083       .  S
C2372      C2373   1.405       .  A
C2373      C2374   1.422       .  A
C2374      C2375   1.512       .  S
C2375      F2379   1.385       .  S
C2375      F2380   1.373       .  S
C2375      F2381   1.381       .  S
C2378      F2382   1.382       .  S
C2378      F2383   1.384       .  S
C2378      F2384   1.385       .  S
C2385      H2392   1.083       .  S
C2385      C2386   1.400       .  A
C2385      C2390   1.411       .  A
C2386      C2387   1.412       .  A
C2387      C2394   1.516       .  S
C2387      C2388   1.415       .  A
C2388      H2393   1.079       .  S
C2388      C2389   1.412       .  A
C2389      C2390   1.423       .  A
C2390      C2391   1.510       .  S
C2391      F2395   1.385       .  S
C2391      F2396   1.380       .  S
C2391      F2397   1.378       .  S
C2394      F2398   1.383       .  S
C2394      F2399   1.384       .  S
C2394      F2400   1.384       .  S
C2401      H2408   1.083       .  S
C2401      C2402   1.407       .  A
C2401      C2406   1.409       .  A
C2402      C2403   1.424       .  A
C2403      C2410   1.524       .  S
C2403      C2404   1.405       .  A
C2404      H2409   1.081       .  S
C2404      C2405   1.402       .  A
C2405      C2406   1.413       .  A
C2406      C2407   1.515       .  S
C2407      F2411   1.385       .  S
C2407      F2412   1.383       .  S
C2407      F2413   1.382       .  S
C2410      F2414   1.383       .  S
C2410      F2415   1.384       .  S
C2410      F2416   1.385       .  S
C2417      H2424   1.083       .  S
C2417      C2418   1.399       .  A
C2417      C2422   1.417       .  A
C2418      C2419   1.406       .  A
C2419      C2426   1.520       .  S
C2419      C2420   1.399       .  A
C2420      H2425   1.085       .  S
C2420      C2421   1.420       .  A
C2421      C2422   1.435       .  A
C2422      C2423   1.514       .  S
C2423      F2427   1.386       .  S
C2423      F2428   1.382       .  S
C2423      F2429   1.382       .  S
C2426      F2430   1.382       .  S
C2426      F2431   1.383       .  S
C2426      F2432   1.384       .  S
C2433      H2440   1.077       .  S
C2433      C2434   1.415       .  A
C2433      C2438   1.409       .  A
C2434      C2435   1.428       .  A
C2435      C2442   1.513       .  S
C2435      C2436   1.401       .  A
C2436      H2441   1.085       .  S
C2436      C2437   1.396       .  A
C2437      C2438   1.415       .  A
C2438      C2439   1.520       .  S
C2439      F2443   1.384       .  S
C2439      F2444   1.382       .  S
C2439      F2445   1.384       .  S
C2442      F2446   1.374       .  S
C2442      F2447   1.379       .  S
C2442      F2448   1.385       .  S
C2449      H2456   1.084       .  S
C2449      C2450   1.406       .  A
C2449      C2454   1.410       .  A
C2450      C2451   1.415       .  A
C2451      C2458   1.515   1_565  S
C2451      C2452   1.415       .  A
C2452      H2457   1.083       .  S
C2452      C2453   1.407       .  A
C2453      C2454   1.417       .  A
C2454      C2455   1.518       .  S
C2455      F2459   1.384       .  S
C2455      F2460   1.384       .  S
C2455      F2461   1.382       .  S
C2458      F2462   1.382   1_545  S
C2458      F2463   1.382       .  S
C2458      F2464   1.384       .  S
C2465      H2472   1.081       .  S
C2465      C2466   1.404   1_565  A
C2465      C2470   1.412       .  A
C2466      C2467   1.418       .  A
C2467      C2474   1.518       .  S
C2467      C2468   1.405       .  A
C2468      H2473   1.081       .  S
C2468      C2469   1.409       .  A
C2469      C2470   1.429   1_545  A
C2470      C2471   1.522       .  S
C2471      F2475   1.385       .  S
C2471      F2476   1.384       .  S
C2471      F2477   1.383       .  S
C2474      F2478   1.383       .  S
C2474      F2479   1.381       .  S
C2474      F2480   1.384       .  S
C2481      H2488   1.081       .  S
C2481      C2482   1.400       .  A
C2481      C2486   1.415       .  A
C2482      C2483   1.412       .  A
C2483      C2490   1.525       .  S
C2483      C2484   1.408       .  A
C2484      H2489   1.051       .  S
C2484      C2485   1.420       .  A
C2485      C2486   1.438       .  A
C2486      C2487   1.527       .  S
C2487      F2491   1.385       .  S
C2487      F2492   1.378       .  S
C2487      F2493   1.379       .  S
C2490      F2494   1.384       .  S
C2490      F2495   1.384       .  S
C2490      F2496   1.383       .  S
C2497      H2504   1.084       .  S
C2497      C2498   1.399       .  A
C2497      C2502   1.406       .  A
C2498      C2499   1.415       .  A
C2499      C2506   1.515       .  S
C2499      C2500   1.414       .  A
C2500      H2505   1.083       .  S
C2500      C2501   1.405       .  A
C2501      C2502   1.425       .  A
C2502      C2503   1.523       .  S
C2503      F2507   1.385       .  S
C2503      F2508   1.380       .  S
C2503      F2509   1.381       .  S
C2506      F2510   1.384       .  S
C2506      F2511   1.383       .  S
C2506      F2512   1.384       .  S
C2513      H2520   1.083       .  S
C2513      C2514   1.403       .  A
C2513      C2518   1.412       .  A
C2514      C2515   1.415       .  A
C2515      C2522   1.520       .  S
C2515      C2516   1.406       .  A
C2516      H2521   1.081       .  S
C2516      C2517   1.406       .  A
C2517      C2518   1.422       .  A
C2518      C2519   1.520       .  S
C2519      F2523   1.381       .  S
C2519      F2524   1.383       .  S
C2519      F2525   1.385       .  S
C2522      F2526   1.382       .  S
C2522      F2527   1.383       .  S
C2522      F2528   1.385       .  S
C2529      H2536   1.083       .  S
C2529      C2530   1.411       .  A
C2529      C2534   1.416       .  A
C2530      C2531   1.424       .  A
C2531      C2538   1.518       .  S
C2531      C2532   1.398       .  A
C2532      H2537   1.081       .  S
C2532      C2533   1.399       .  A
C2533      C2534   1.423       .  A
C2534      C2535   1.521       .  S
C2535      F2539   1.385       .  S
C2535      F2540   1.382       .  S
C2535      F2541   1.381       .  S
C2538      F2542   1.384       .  S
C2538      F2543   1.383       .  S
C2538      F2544   1.386       .  S
C2545      H2552   1.082       .  S
C2545      C2546   1.411       .  A
C2545      C2550   1.412       .  A
C2546      C2547   1.430       .  A
C2547      C2554   1.524       .  S
C2547      C2548   1.407       .  A
C2548      H2553   1.081       .  S
C2548      C2549   1.400       .  A
C2549      C2550   1.418       .  A
C2550      C2551   1.518       .  S
C2551      F2555   1.385       .  S
C2551      F2556   1.379       .  S
C2551      F2557   1.380       .  S
C2554      F2558   1.383       .  S
C2554      F2559   1.384       .  S
C2554      F2560   1.386       .  S
C2561      H2568   1.085       .  S
C2561      C2562   1.400       .  A
C2561      C2566   1.398       .  A
C2562      C2563   1.416       .  A
C2563      C2570   1.511       .  S
C2563      C2564   1.411       .  A
C2564      H2569   1.083       .  S
C2564      C2565   1.404       .  A
C2565      C2566   1.418       .  A
C2566      C2567   1.516       .  S
C2567      F2571   1.384       .  S
C2567      F2572   1.383       .  S
C2567      F2573   1.378       .  S
C2570      F2574   1.383       .  S
C2570      F2575   1.375       .  S
C2570      F2576   1.385       .  S
C2577      H2584   1.083       .  S
C2577      C2578   1.403       .  A
C2577      C2582   1.411       .  A
C2578      C2579   1.413       .  A
C2579      C2586   1.520       .  S
C2579      C2580   1.403       .  A
C2580      H2585   1.079       .  S
C2580      C2581   1.408       .  A
C2581      C2582   1.417       .  A
C2582      C2583   1.510       .  S
C2583      F2587   1.385       .  S
C2583      F2588   1.380       .  S
C2583      F2589   1.381       .  S
C2586      F2590   1.381       .  S
C2586      F2591   1.383       .  S
C2586      F2592   1.385       .  S
