geometry optimzed in LAMMPS
_audit_creation_date              2020-11-30 
_audit_creation_method            'lammps2cif' 
_symmetry_space_group_name_H-M    'P1' 
_symmetry_Int_Tables_number       1 
_symmetry_cell_setting            triclinic 
loop_ 
_symmetry_equiv_pos_as_xyz 
  x,y,z 
_cell_length_a                    42.12145887 
_cell_length_b                    42.201818992013884 
_cell_length_c                    43.14321569367949 
_cell_angle_alpha                 89.81553907081954 
_cell_angle_beta                  89.66827275332807 
_cell_angle_gamma                 123.00619390613662 
loop_ 
_atom_site_label 
_atom_site_type_symbol 
_atom_site_fract_x 
_atom_site_fract_y 
_atom_site_fract_z 
_atom_site_charge 
O1          O  0.49155825  0.18981297  0.39998082    -0.57500
C2          C  0.52663510  0.12238652  0.40750456     0.75100
O3          O  0.41721241  0.06694433  0.43827538    -0.58600
C4          C  0.46222548  0.19015027  0.39448192     0.75100
C5          C  0.43391678  0.08865729  0.34051187     0.77500
Cd6        Cd  0.45792306  0.12012713  0.40154287     1.37500
O7          O  0.52581812  0.15180851  0.40989609    -0.57500
O8          O  0.46804991  0.10972422  0.34853052    -0.56300
C9          C  0.42424827  0.08803435  0.46147759     0.77500
O10         O  0.40912766  0.08147147  0.36107474    -0.58700
O11         O  0.49521597  0.09168441  0.40316884    -0.57100
O12         O  0.43161594  0.15819135  0.39206028    -0.57100
O13         O  0.44389718  0.12310092  0.45598208    -0.56300
O14         O  0.76895379  0.19313498  0.40853830    -0.57500
C15         C  0.66390767  0.12253280  0.41086290     0.75100
O16         O  0.69829526  0.09282193  0.35909414    -0.58600
C17         C  0.79997905  0.19791788  0.39977191     0.75100
C18         C  0.73860345  0.09855938  0.46792030     0.77500
Cd19       Cd  0.73228650  0.12383764  0.40693634     1.37500
O20         O  0.69442690  0.15098924  0.40036271    -0.57500
O21         O  0.74582090  0.13116621  0.46230760    -0.56300
C22         C  0.72265742  0.08744372  0.34771313     0.77500
O23         O  0.72923472  0.07694291  0.44469173    -0.58700
O24         O  0.66560877  0.09499308  0.42004436    -0.57100
O25         O  0.79909039  0.16840196  0.39254037    -0.57100
O26         O  0.75024068  0.09568263  0.36507899    -0.56300
O27         O  0.44785858  0.99524449  0.67121856    -0.57500
C28         C  0.34403021  0.94559782  0.65648823     0.75100
O29         O  0.38261322  0.03478496  0.69605301    -0.58600
C30         C  0.47685042  0.01661480  0.65468860     0.75100
C31         C  0.40521500  0.04380919  0.59054286     0.77500
Cd32       Cd  0.41050106  0.02015020  0.65234779     1.37500
O33         O  0.37661968  0.95118390  0.65368045    -0.57500
O34         O  0.39668156  0.01098526  0.59742635    -0.56300
C35         C  0.41342916  0.05701254  0.70963079     0.77500
O36         O  0.41562508  0.06666325  0.61295935    -0.58700
O37         O  0.34263856  0.97475363  0.65843574    -0.57100
O38         O  0.47487560  0.03957185  0.63709895    -0.57100
O39         O  0.44310410  0.06619844  0.69449979    -0.56300
O40         O  0.64868854  0.94623959  0.65710312    -0.57500
C41         C  0.61272334  0.01345980  0.65383958     0.75100
O42         O  0.71464622  0.02132930  0.70445097    -0.58600
C43         C  0.67825901  0.94602217  0.65188903     0.75100
C44         C  0.71419855  0.04476670  0.59401284     0.77500
Cd45       Cd  0.68240471  0.01604641  0.65489947     1.37500
O46         O  0.61311579  0.98500723  0.66280729    -0.57500
O47         O  0.68290116  0.01427980  0.59904471    -0.56300
C48         C  0.71286346  0.04798607  0.71549229     0.77500
O49         O  0.73230797  0.06339164  0.61781305    -0.58700
O50         O  0.64423748  0.04240963  0.64594068    -0.57100
O51         O  0.70896793  0.97804117  0.64923000    -0.57100
O52         O  0.70083863  0.06269568  0.69737486    -0.56300
O53         O  0.48432367  0.17753553  0.15094309    -0.57500
C54         C  0.52370230  0.11548900  0.14511427     0.75100
O55         O  0.40482784  0.08078665  0.19160875    -0.58600
C56         C  0.45415083  0.17722776  0.14953272     0.75100
C57         C  0.42403629  0.07936540  0.08763160     0.77500
Cd58       Cd  0.45250356  0.10848197  0.14820087     1.37500
O59         O  0.52116276  0.14258513  0.15418657    -0.57500
O60         O  0.45043272  0.11297415  0.09312054    -0.56300
C61         C  0.42586127  0.07611244  0.20926457     0.77500
O62         O  0.40880792  0.05788036  0.11110681    -0.58700
O63         O  0.49329778  0.08580418  0.13654271    -0.57100
O64         O  0.42355939  0.14503385  0.14863399    -0.57100
O65         O  0.45591581  0.08201197  0.19704132    -0.56300
O66         O  0.76553084  0.18057996  0.15826404    -0.57500
C67         C  0.66011897  0.11397027  0.14801576     0.75100
O68         O  0.72144077  0.06115950  0.12049396    -0.58600
C69         C  0.79690824  0.18320545  0.15980408     0.75100
C70         C  0.71568065  0.07653818  0.21613598     0.77500
Cd71       Cd  0.72601972  0.11074680  0.15546134     1.37500
O72         O  0.68995779  0.14043531  0.16069342    -0.57500
O73         O  0.74442984  0.08610118  0.19947984    -0.56300
C74         C  0.73054296  0.08172749  0.09639406     0.77500
O75         O  0.69021011  0.07886916  0.20327846    -0.58700
O76         O  0.66101590  0.08605145  0.13867974    -0.57100
O77         O  0.79506268  0.15231049  0.15988281    -0.57100
O78         O  0.73820523  0.11477493  0.10050166    -0.56300
O79         O  0.37287030  0.94732030  0.88256682    -0.57500
C80         C  0.47617285  0.00976614  0.90351693     0.75100
O81         O  0.39097794  0.04248919  0.85772848    -0.58600
C82         C  0.34153452  0.94434004  0.88647435     0.75100
C83         C  0.40615397  0.03781390  0.95873728     0.77500
Cd84       Cd  0.41149785  0.01485580  0.89724318     1.37500
O85         O  0.44424932  0.98184367  0.89533163    -0.57500
O86         O  0.39681098  0.00464224  0.95238634    -0.56300
C87         C  0.41956008  0.05490929  0.84017290     0.77500
O88         O  0.41670551  0.06054046  0.93600025    -0.58700
O89         O  0.47803506  0.04021282  0.90902124    -0.57100
O90         O  0.34341625  0.97400196  0.89486777    -0.57100
O91         O  0.44588064  0.05206881  0.85053784    -0.56300
O92         O  0.61064024  0.97646472  0.90642864    -0.57500
C93         C  0.68221605  0.94206741  0.90420021     0.75100
O94         O  0.72892394  0.05004669  0.86763599    -0.58600
C95         C  0.61060984  0.00567527  0.91319247     0.75100
C96         C  0.70915574  0.03544273  0.96882938     0.77500
Cd97       Cd  0.67969311  0.00824728  0.90784391     1.37500
O98         O  0.65110008  0.94008085  0.90476109    -0.57500
O99         O  0.68445755  0.00119962  0.96317379    -0.56300
C100        C  0.70453381  0.04138623  0.84666904     0.77500
O101        O  0.72147361  0.05767357  0.94559784    -0.58700
O102        O  0.71208277  0.97482333  0.90465354    -0.57100
O103        O  0.64249073  0.03546843  0.91847134    -0.57100
O104        O  0.67037529  0.01889657  0.85448792    -0.56300
O105        O  0.43765454  0.51861273  0.88668905    -0.57500
C106        C  0.33343872  0.45711508  0.89471281     0.75100
O107        O  0.37172249  0.40952462  0.84981501    -0.58600
C108        C  0.46811633  0.52272422  0.89610755     0.75100
C109        C  0.39187306  0.41359768  0.95639633     0.77500
Cd110      Cd  0.39762406  0.44976974  0.89698516     1.37500
O111        O  0.36679065  0.48505510  0.89910635    -0.57500
O112        O  0.38911479  0.44170906  0.95330538    -0.56300
C113        C  0.40348377  0.42309923  0.83654474     0.77500
O114        O  0.39670247  0.40086300  0.93146570    -0.58700
O115        O  0.32977433  0.42557820  0.89050796    -0.57100
O116        O  0.46523587  0.49339274  0.90698261    -0.57100
O117        O  0.43197278  0.44554395  0.85261973    -0.56300
O118        O  0.61487826  0.69998839  0.88438231    -0.57500
C119        C  0.68332625  0.80607232  0.89525773     0.75100
O120        O  0.72816065  0.73326609  0.92814337    -0.58600
C121        C  0.61092517  0.66885926  0.89152997     0.75100
C122        C  0.71502806  0.74138031  0.83110085     0.77500
Cd123      Cd  0.68424271  0.73856317  0.89260335     1.37500
O124        O  0.65337305  0.77371675  0.89186607    -0.57500
O125        O  0.72884294  0.77032602  0.84793581    -0.56300
C126        C  0.71174307  0.73379233  0.95271075     0.77500
O127        O  0.68996111  0.71078612  0.84400383    -0.58700
O128        O  0.71383175  0.80710662  0.89755869    -0.57100
O129        O  0.64089909  0.67062631  0.89892671    -0.57100
O130        O  0.68453716  0.73795850  0.94896402    -0.56300
O131        O  0.76823667  0.63791352  0.14070176    -0.57500
C132        C  0.66444661  0.59729005  0.13927781     0.75100
O133        O  0.76323263  0.71978393  0.18061972    -0.58600
C134        C  0.80104458  0.66780281  0.14135817     0.75100
C135        C  0.73405780  0.70095999  0.07855140     0.77500
Cd136      Cd  0.73437148  0.67050264  0.13925371     1.37500
O137        O  0.69524839  0.60100669  0.14721425    -0.57500
O138        O  0.74429279  0.67817985  0.08277162    -0.56300
C139        C  0.73540882  0.70288692  0.19921129     0.77500
O140        O  0.72515641  0.71118852  0.10288962    -0.58700
O141        O  0.66671876  0.62731016  0.13129832    -0.57100
O142        O  0.80275678  0.69868811  0.14132091    -0.57100
O143        O  0.70656942  0.67316166  0.18902653    -0.56300
O144        O  0.51940603  0.41907295  0.14441396    -0.57500
C145        C  0.45083968  0.31211843  0.13821697     0.75100
O146        O  0.43361639  0.40630902  0.18227067    -0.58600
C147        C  0.52276512  0.45006147  0.13803904     0.75100
C148        C  0.41675971  0.37633932  0.07863338     0.77500
Cd149      Cd  0.44991292  0.37936065  0.13810279     1.37500
O150        O  0.48128084  0.34465451  0.13786422    -0.57500
O151        O  0.40000054  0.37541092  0.10351600    -0.56300
C152        C  0.42331421  0.37880600  0.20060814     0.77500
O153        O  0.44723933  0.37774364  0.08183914    -0.58700
O154        O  0.42025661  0.31112503  0.13765750    -0.57100
O155        O  0.49238477  0.44788931  0.13154756    -0.57100
O156        O  0.42135297  0.35047931  0.18887772    -0.56300
O157        O  0.37307781  0.48716695  0.64734567    -0.57500
C158        C  0.47750767  0.52953170  0.63637897     0.75100
O159        O  0.39062698  0.40854541  0.68558460    -0.58600
C160        C  0.34083556  0.45701116  0.65093010     0.75100
C161        C  0.40386951  0.42341697  0.58322321     0.77500
Cd162      Cd  0.40846021  0.45665294  0.64341048     1.37500
O163        O  0.44629600  0.52602687  0.64262787    -0.57500
O164        O  0.39501910  0.44717345  0.58779379    -0.56300
C165        C  0.41490650  0.43180744  0.70462335     0.77500
O166        O  0.41406615  0.41359921  0.60707565    -0.58700
O167        O  0.47627090  0.49908562  0.63308596    -0.57100
O168        O  0.33996761  0.42658798  0.65104991    -0.57100
O169        O  0.43727952  0.46491735  0.69442039    -0.56300
O170        O  0.65589063  0.78016448  0.63944042    -0.57500
C171        C  0.61779905  0.67726935  0.63412020     0.75100
O172        O  0.73219858  0.73855062  0.60355863    -0.58600
C173        C  0.68532369  0.81318673  0.64085212     0.75100
C174        C  0.71571299  0.74416224  0.69889044     0.77500
Cd175      Cd  0.68983092  0.74772705  0.63760910     1.37500
O176        O  0.62021502  0.70837505  0.63681374    -0.57500
O177        O  0.73762702  0.77098824  0.68056893    -0.56300
C178        C  0.72318992  0.74771373  0.57872399     0.77500
O179        O  0.68389360  0.71936070  0.68816408    -0.58700
O180        O  0.64885746  0.67926344  0.63220052    -0.57100
O181        O  0.71663673  0.81564496  0.64134728    -0.57100
O182        O  0.70141649  0.75940137  0.58169299    -0.56300
O183        O  0.70243448  0.61604364  0.38181135    -0.57500
C184        C  0.80739034  0.68031116  0.39486487     0.75100
O185        O  0.77319955  0.71912133  0.34428132    -0.58600
C186        C  0.67193720  0.61098040  0.39246725     0.75100
C187        C  0.74546552  0.71633239  0.45299682     0.77500
Cd188      Cd  0.74173221  0.68428151  0.39265882     1.37500
O189        O  0.77430282  0.65076358  0.39464739    -0.57500
O190        O  0.74743092  0.68792785  0.44855325    -0.56300
C191        C  0.74418995  0.71430317  0.33119928     0.77500
O192        O  0.74240516  0.73153771  0.42874578    -0.58700
O193        O  0.80961288  0.71147747  0.39368482    -0.57100
O194        O  0.67392612  0.64009115  0.40267790    -0.57100
O195        O  0.71465269  0.69944792  0.34797697    -0.56300
O196        O  0.49330389  0.36135390  0.39392803    -0.57500
C197        C  0.52853258  0.46597533  0.39698050     0.75100
O198        O  0.46478491  0.41795439  0.34333698    -0.58600
C199        C  0.46392960  0.32824310  0.39384384     0.75100
C200        C  0.42919262  0.39244827  0.45789457     0.77500
Cd201      Cd  0.45893738  0.39344172  0.39628049     1.37500
O202        O  0.52779826  0.43557672  0.39896339    -0.57500
O203        O  0.45780004  0.39098550  0.45264393    -0.56300
C204        C  0.43287252  0.39210869  0.33344518     0.77500
O205        O  0.41261019  0.39405418  0.43398271    -0.58700
O206        O  0.49675555  0.46244689  0.39490248    -0.57100
O207        O  0.43254229  0.32562147  0.39445986    -0.57100
O208        O  0.41082745  0.36761666  0.35337531    -0.56300
O209        O  0.20517051  0.48978686  0.65113938    -0.57500
C210        C  0.13584402  0.52572317  0.64856645     0.75100
O211        O  0.08564935  0.41618582  0.61592197    -0.58600
C212        C  0.20538822  0.46027101  0.65568432     0.75100
C213        C  0.10673381  0.43524077  0.71452226     0.77500
Cd214      Cd  0.13658398  0.45844741  0.65265014     1.37500
O215        O  0.16656477  0.52715429  0.65144227    -0.57500
O216        O  0.09861890  0.41005592  0.69440049    -0.56300
C217        C  0.10658082  0.42878799  0.59189631     0.77500
O218        O  0.12687920  0.46915323  0.70543481    -0.58700
O219        O  0.10594111  0.49307859  0.64710041    -0.57100
O220        O  0.17345375  0.42991304  0.66011203    -0.57100
O221        O  0.14127564  0.45277320  0.59665486    -0.56300
O222        O  0.16614804  0.69586937  0.64605458    -0.57500
C223        C  0.20335207  0.79977143  0.65322124     0.75100
O224        O  0.08396378  0.72334450  0.60948487    -0.58600
C225        C  0.13671405  0.66329563  0.64206170     0.75100
C226        C  0.09727526  0.71910350  0.70510529     0.77500
Cd227      Cd  0.13301831  0.72886833  0.64528834     1.37500
O228        O  0.20224485  0.76942483  0.64978600    -0.57500
O229        O  0.10832479  0.69836736  0.69562224    -0.56300
C230        C  0.10420781  0.73140962  0.58524844     0.77500
O231        O  0.10020655  0.74324852  0.68585161    -0.58700
O232        O  0.17193046  0.79694893  0.65287884    -0.57100
O233        O  0.10593237  0.66160569  0.63870471    -0.57100
O234        O  0.13689527  0.73800771  0.58928832    -0.56300
O235        O  0.98607421  0.44250110  0.40475496    -0.57500
C236        C  0.94515054  0.33991616  0.40207358     0.75100
O237        O  0.04070650  0.38593372  0.36447691    -0.58600
C238        C  0.01528379  0.47530704  0.40819953     0.75100
C239        C  0.05184643  0.40898804  0.46605075     0.77500
Cd240      Cd  0.01864968  0.40908144  0.40709611     1.37500
O241        O  0.94882446  0.37047085  0.41039467    -0.57500
O242        O  0.01847157  0.40098665  0.46310160    -0.56300
C243        C  0.04876212  0.41252702  0.34577571     0.77500
O244        O  0.07066371  0.41639310  0.44109245    -0.58700
O245        O  0.97545059  0.34133961  0.39679259    -0.57100
O246        O  0.04621318  0.47727774  0.41144498    -0.57100
O247        O  0.04605960  0.43883058  0.35640274    -0.56300
O248        O  0.94345634  0.64968895  0.40355303    -0.57500
C249        C  0.01399877  0.61204973  0.40717075     0.75100
O250        O  0.04973108  0.72358065  0.35825541    -0.58600
C251        C  0.94506743  0.68041727  0.40052512     0.75100
C252        C  0.04352675  0.70877953  0.46202972     0.77500
Cd253      Cd  0.01214775  0.67848984  0.40202925     1.37500
O254        O  0.98294224  0.61030058  0.40655740    -0.57500
O255        O  0.01066337  0.68005619  0.45800730    -0.56300
C256        C  0.03721396  0.69734094  0.33836708     0.77500
O257        O  0.06272517  0.72517443  0.43761410    -0.58700
O258        O  0.04395089  0.64477065  0.40563685    -0.57100
O259        O  0.97786906  0.71001848  0.39802221    -0.57100
O260        O  0.01520063  0.66404685  0.34841406    -0.56300
O261        O  0.20174343  0.49428817  0.90681896    -0.57500
C262        C  0.13216667  0.53286397  0.91030709     0.75100
O263        O  0.09361865  0.41633503  0.86656354    -0.58600
C264        C  0.20014051  0.46446046  0.89919433     0.75100
C265        C  0.10156907  0.43245001  0.96671486     0.77500
Cd266      Cd  0.13261213  0.46508944  0.90662956     1.37500
O267        O  0.16259013  0.53368674  0.90773376    -0.57500
O268        O  0.13604736  0.45820727  0.96268012    -0.56300
C269        C  0.10267715  0.44074916  0.84530186     0.77500
O270        O  0.08171627  0.41977708  0.94244466    -0.58700
O271        O  0.10191320  0.50039871  0.91246666    -0.57100
O272        O  0.16739047  0.43529252  0.89554735    -0.57100
O273        O  0.12338208  0.47499272  0.85305870    -0.56300
O274        O  0.15468862  0.69813650  0.89918472    -0.57500
C275        C  0.19492290  0.80396175  0.88696523     0.75100
O276        O  0.08741242  0.74067521  0.85434835    -0.58600
C277        C  0.12489046  0.66608952  0.90476740     0.75100
C278        C  0.09639255  0.73652434  0.95714339     0.77500
Cd279      Cd  0.12399234  0.73300953  0.89641855     1.37500
O280        O  0.19336880  0.77365886  0.89233396    -0.57500
O281        O  0.12951470  0.74481890  0.95168316    -0.56300
C282        C  0.09074404  0.71931467  0.83585209     0.77500
O283        O  0.07518463  0.72771732  0.93366088    -0.58700
O284        O  0.16351715  0.80114332  0.88525718    -0.57100
O285        O  0.09437482  0.66516210  0.90672468    -0.57100
O286        O  0.10718228  0.70398571  0.84624414    -0.56300
O287        O  0.94277604  0.36054975  0.15884636    -0.57500
C288        C  0.01113890  0.46669627  0.14915152     0.75100
O289        O  0.03744331  0.37850635  0.19575292    -0.58600
C290        C  0.93964043  0.32905304  0.15679770     0.75100
C291        C  0.04507117  0.40233217  0.09306475     0.77500
Cd292      Cd  0.01245573  0.39952642  0.15320298     1.37500
O293        O  0.98075967  0.43431708  0.15176296    -0.57500
O294        O  0.01109089  0.39200884  0.09752258    -0.56300
C295        C  0.04317431  0.40435909  0.21420157     0.77500
O296        O  0.06492986  0.41041953  0.11725262    -0.58700
O297        O  0.04154374  0.46741854  0.14801171    -0.57100
O298        O  0.97026231  0.33039571  0.15371234    -0.57100
O299        O  0.03772704  0.42882423  0.20344428    -0.56300
O300        O  0.97751223  0.60161138  0.14092409    -0.57500
C301        C  0.93925050  0.66942730  0.14557042     0.75100
O302        O  0.04823778  0.71780014  0.18496133    -0.58600
C303        C  0.00783354  0.60213382  0.14111635     0.75100
C304        C  0.03894875  0.70379868  0.08291573     0.77500
Cd305      Cd  0.00795423  0.67039496  0.14349789     1.37500
O306        O  0.93892484  0.63963564  0.14094378    -0.57500
O307        O  0.00570552  0.67574329  0.08745902    -0.56300
C308        C  0.03443646  0.69293756  0.20635345     0.77500
O309        O  0.05917597  0.71752849  0.10697533    -0.58700
O310        O  0.97142096  0.69937460  0.14942535    -0.57100
O311        O  0.03833635  0.63453882  0.14157102    -0.57100
O312        O  0.00958067  0.65966626  0.19835761    -0.56300
C313        C  0.97753715  0.49888357  0.13795823    -0.08800
C314        C  0.01090289  0.50164314  0.14710247     0.07400
C315        C  0.04316116  0.53772717  0.15368491    -0.02600
C316        C  0.04141840  0.56975633  0.15098566    -0.07000
C317        C  0.00805248  0.56706590  0.14192290     0.06500
C318        C  0.97585679  0.53098986  0.13509047    -0.02100
Br319      Br  0.92909285  0.52309521  0.12042950    -0.01800
H320        H  0.95261484  0.47154560  0.13247556     0.10400
H321        H  0.06632528  0.59698917  0.15665689     0.08400
Br322      Br  0.09012531  0.54577759  0.16805407    -0.02200
C323        C  0.04379862  0.71678120  0.99511890    -0.08800
C324        C  0.08281542  0.73490502  0.98943809     0.07400
C325        C  0.10751558  0.74790905  0.01517432    -0.02600
C326        C  0.09271553  0.73916545  0.04542896    -0.07000
C327        C  0.05351932  0.71811648  0.05098686     0.06500
C328        C  0.02907894  0.70871972  0.02539093    -0.02100
Br329      Br  0.97533568  0.68537459  0.02976838    -0.01800
H330        H  0.02436359  0.70765518  0.97590534     0.10400
H331        H  0.11203862  0.74774025  0.06465207     0.08400
Br332      Br  0.16178878  0.77760680  0.01123759    -0.02200
C333        C  0.03527513  0.39950912  0.03630243    -0.08800
C334        C  0.05982147  0.40583662  0.06090881     0.07400
C335        C  0.09747923  0.41738936  0.05370066    -0.02600
C336        C  0.10995136  0.42427494  0.02272198    -0.07000
C337        C  0.08565450  0.41954168  0.99838274     0.06500
C338        C  0.04763774  0.40623450  0.00550060    -0.02100
Br339      Br  0.01166731  0.40009323  0.97498671    -0.01800
H340        H  0.00611913  0.39049627  0.04100941     0.10400
H341        H  0.13927471  0.43419126  0.01766601     0.08400
Br342      Br  0.13360900  0.42483551  0.08451544    -0.02200
C343        C  0.15859031  0.63363162  0.89674496    -0.08800
C344        C  0.12623449  0.63181753  0.90786568     0.07400
C345        C  0.09636409  0.59740817  0.92081719    -0.02600
C346        C  0.09931831  0.56591835  0.92189453    -0.07000
C347        C  0.13152166  0.56767285  0.91027416     0.06500
C348        C  0.16145616  0.60221017  0.89764367    -0.02100
Br349      Br  0.20616261  0.60848797  0.87911515    -0.01800
H350        H  0.18168860  0.65955264  0.88644368     0.10400
H351        H  0.07610873  0.53978140  0.93183692     0.08400
Br352      Br  0.05109183  0.59117894  0.93805309    -0.02200
C353        C  0.05139953  0.67779076  0.28908753    -0.08800
C354        C  0.04630310  0.70376612  0.30482677     0.07400
C355        C  0.04354187  0.73055645  0.28743133    -0.02600
C356        C  0.04337450  0.72921931  0.25483042    -0.07000
C357        C  0.04532962  0.70108171  0.23931660     0.06500
C358        C  0.05096346  0.67627497  0.25676141    -0.02100
Br359      Br  0.05648140  0.63849414  0.23752508    -0.01800
H360        H  0.05381699  0.65715226  0.30209953     0.10400
H361        H  0.03853748  0.74816951  0.24172926     0.08400
Br362      Br  0.03424814  0.76560209  0.30690368    -0.02200
C363        C  0.07472440  0.44093794  0.26158619    -0.08800
C364        C  0.05330848  0.40555609  0.24717518     0.07400
C365        C  0.03662781  0.37257808  0.26574149    -0.02600
C366        C  0.03871421  0.37561542  0.29810034    -0.07000
C367        C  0.05689906  0.41106806  0.31252715     0.06500
C368        C  0.07682490  0.44393698  0.29391071    -0.02100
Br369      Br  0.10662674  0.49368051  0.31117231    -0.01800
H370        H  0.08835258  0.46651269  0.24766775     0.10400
H371        H  0.02329002  0.35006776  0.31197404     0.08400
Br372      Br  0.00590232  0.32270574  0.24886200    -0.02200
C373        C  0.04676578  0.54433856  0.41641425    -0.08800
C374        C  0.01385535  0.50970591  0.40846503     0.07400
C375        C  0.98098653  0.50924177  0.40075331    -0.02600
C376        C  0.98180190  0.54278585  0.40114183    -0.07000
C377        C  0.01482902  0.57742490  0.40867900     0.06500
C378        C  0.04763908  0.57793289  0.41654345    -0.02100
Br379      Br  0.09450336  0.62284871  0.42848638    -0.01800
H380        H  0.07223222  0.54545234  0.42261647     0.10400
H381        H  0.95642266  0.54178198  0.39479377     0.08400
Br382      Br  0.93415575  0.46470974  0.38822902    -0.02200
C383        C  0.07393339  0.68310553  0.75437641    -0.08800
C384        C  0.08411881  0.71599969  0.73762013     0.07400
C385        C  0.08699706  0.74662782  0.75371220    -0.02600
C386        C  0.08479544  0.74567101  0.78621176    -0.07000
C387        C  0.07951747  0.71454737  0.80295943     0.06500
C388        C  0.07130767  0.68204949  0.78666360    -0.02100
Br389      Br  0.05806652  0.63589576  0.80729849    -0.01800
H390        H  0.07006274  0.65873783  0.74249571     0.10400
H391        H  0.09050113  0.77059299  0.79839225     0.08400
Br392      Br  0.09801899  0.79218560  0.73348447    -0.02200
C393        C  0.05095170  0.71492959  0.54984373    -0.08800
C394        C  0.08996658  0.73150640  0.55382836     0.07400
C395        C  0.11395173  0.74569724  0.52733555    -0.02600
C396        C  0.09833843  0.74001650  0.49774059    -0.07000
C397        C  0.05907118  0.72062819  0.49368265     0.06500
C398        C  0.03541466  0.70955578  0.52026647    -0.02100
Br399      Br  0.98169743  0.68720988  0.51812996    -0.01800
H400        H  0.03210005  0.70490327  0.56979345     0.10400
H401        H  0.11700332  0.74943729  0.47773008     0.08400
Br402      Br  0.16823551  0.77299153  0.52928461    -0.02200
C403        C  0.08443010  0.45015110  0.76165397    -0.08800
C404        C  0.09473525  0.42718835  0.74734423     0.07400
C405        C  0.10058504  0.40325577  0.76589420    -0.02600
C406        C  0.09896279  0.40496850  0.79833129    -0.07000
C407        C  0.09234615  0.43081504  0.81252025     0.06500
C408        C  0.08339154  0.45230101  0.79385752    -0.02100
Br409      Br  0.07190167  0.48690375  0.81106034    -0.01800
H410        H  0.07959694  0.46852796  0.74764727     0.10400
H411        H  0.10641911  0.38866150  0.81242026     0.08400
Br412      Br  0.11673266  0.37243948  0.74849998    -0.02200
C413        C  0.04104302  0.39318254  0.52213938    -0.08800
C414        C  0.06702846  0.40997626  0.49737300     0.07400
C415        C  0.10607535  0.42921125  0.50391880    -0.02600
C416        C  0.11801072  0.43315023  0.53474932    -0.07000
C417        C  0.09193770  0.41824286  0.55969506     0.06500
C418        C  0.05289473  0.39696481  0.55287370    -0.02100
Br419      Br  0.01362626  0.37359953  0.58390874    -0.01800
H420        H  0.01090024  0.37764565  0.51770570     0.10400
H421        H  0.14817408  0.44927133  0.53923034     0.08400
Br422      Br  0.14486795  0.45299408  0.47252808    -0.02200
C423        C  0.10311787  0.59390940  0.64785910    -0.08800
C424        C  0.13739067  0.62858673  0.64254528     0.07400
C425        C  0.17095395  0.62894988  0.63895061    -0.02600
C426        C  0.16959952  0.59518451  0.64132047    -0.07000
C427        C  0.13530148  0.56049146  0.64673211     0.06500
C428        C  0.10166410  0.56013553  0.64996329    -0.02100
Br429      Br  0.05266456  0.51536149  0.65828649    -0.01800
H430        H  0.07707482  0.59299043  0.65092293     0.10400
H431        H  0.19566043  0.59610016  0.63839676     0.08400
Br432      Br  0.21933244  0.67374347  0.62920609    -0.02200
C433        C  0.87711459  0.71365101  0.39944305    -0.08800
C434        C  0.84198146  0.67923578  0.39657870     0.07400
C435        C  0.84125783  0.64535053  0.39557252    -0.02600
C436        C  0.87513100  0.64670987  0.39706637    -0.07000
C437        C  0.91027176  0.68116755  0.39960867     0.06500
C438        C  0.91094361  0.71500467  0.40102614    -0.02100
Br439      Br  0.95633310  0.76425132  0.40589986    -0.01800
H440        H  0.87845997  0.73998671  0.40061425     0.10400
H441        H  0.87386352  0.62042266  0.39596554     0.08400
Br442      Br  0.79571078  0.59603053  0.39180368    -0.02200
C443        C  0.59837009  0.50482028  0.38990765    -0.08800
C444        C  0.56485132  0.50335912  0.39633590     0.07400
C445        C  0.56709799  0.53757326  0.40151866    -0.02600
C446        C  0.60215964  0.57191896  0.39983382    -0.07000
C447        C  0.63568365  0.57344863  0.39317947     0.06500
C448        C  0.63346426  0.53918110  0.38822534    -0.02100
Br449      Br  0.67675944  0.53639520  0.37993821    -0.01800
H450        H  0.59735707  0.47889735  0.38591885     0.10400
H451        H  0.60310741  0.59776482  0.40393027     0.08400
Br452      Br  0.52416924  0.54004599  0.41234703    -0.02200
C453        C  0.73745702  0.76686240  0.52321714    -0.08800
C454        C  0.73544875  0.74355070  0.54755525     0.07400
C455        C  0.74046216  0.71391709  0.54064078    -0.02600
C456        C  0.74558219  0.70718700  0.50988828    -0.07000
C457        C  0.74533702  0.72901391  0.48519690     0.06500
C458        C  0.74244487  0.76002628  0.49232690    -0.02100
Br459      Br  0.74386610  0.79365555  0.46147280    -0.01800
H460        H  0.73396539  0.78988314  0.52813365     0.10400
H461        H  0.74798503  0.68340569  0.50528129     0.08400
Br462      Br  0.73613599  0.67855243  0.57126434    -0.02200
C463        C  0.30663187  0.48843110  0.64069822    -0.08800
C464        C  0.30622467  0.45771376  0.65374901     0.07400
C465        C  0.27266380  0.42837473  0.66813877    -0.02600
C466        C  0.24057712  0.43033332  0.66907361    -0.07000
C467        C  0.24079775  0.46077586  0.65550263     0.06500
C468        C  0.27437465  0.48999728  0.64098655    -0.02100
Br469      Br  0.27787088  0.53131387  0.61867604    -0.01800
H470        H  0.33193656  0.51089324  0.62909177     0.10400
H471        H  0.21512489  0.40763367  0.68035677     0.08400
Br472      Br  0.26860500  0.38524315  0.68753403    -0.02200
C473        C  0.42528194  0.39327035  0.54634033    -0.08800
C474        C  0.40441270  0.40972214  0.55150788     0.07400
C475        C  0.38721536  0.41529491  0.52573021    -0.02600
C476        C  0.39400570  0.40765270  0.49561966    -0.07000
C477        C  0.41747724  0.39409383  0.49028622     0.06500
C478        C  0.43172472  0.38523828  0.51634240    -0.02100
Br479      Br  0.46018021  0.36198602  0.51322698    -0.01800
H480        H  0.43790309  0.38774007  0.56571964     0.10400
H481        H  0.38186671  0.41365260  0.47618509     0.08400
Br482      Br  0.35397912  0.43307121  0.52961040    -0.02200
C483        C  0.51326967  0.59922101  0.64303145    -0.08800
C484        C  0.51335914  0.56729404  0.63392739     0.07400
C485        C  0.54789004  0.57239353  0.62387603    -0.02600
C486        C  0.58100079  0.60849913  0.62364985    -0.07000
C487        C  0.58107797  0.64026992  0.63339098     0.06500
C488        C  0.54652001  0.63531315  0.64310215    -0.02100
Br489      Br  0.54242727  0.67558664  0.65867258    -0.01800
H490        H  0.48724530  0.59607253  0.65101646     0.10400
H491        H  0.60710343  0.61161082  0.61595339     0.08400
Br492      Br  0.55282793  0.53199063  0.61008466    -0.02200
C493        C  0.43667065  0.41711710  0.24804646    -0.08800
C494        C  0.41781712  0.38117716  0.23444501     0.07400
C495        C  0.39933981  0.34899825  0.25412323    -0.02600
C496        C  0.40191655  0.35335884  0.28645302    -0.07000
C497        C  0.42357295  0.38931206  0.29992193     0.06500
C498        C  0.44018715  0.42143341  0.28027156    -0.02100
Br499      Br  0.46929653  0.47216800  0.29568316    -0.01800
H500        H  0.45100060  0.44217275  0.23355543     0.10400
H501        H  0.38898606  0.32838873  0.30103174     0.08400
Br502      Br  0.37141080  0.29822671  0.23864491    -0.02200
C503        C  0.86771527  0.69702208  0.15733685    -0.08800
C504        C  0.83576586  0.66717660  0.14260606     0.07400
C505        C  0.83809791  0.63807890  0.12914804    -0.02600
C506        C  0.87179858  0.63912213  0.13100282    -0.07000
C507        C  0.90389641  0.66909952  0.14560813     0.06500
C508        C  0.90152984  0.69830788  0.15896018    -0.02100
Br509      Br  0.94259064  0.74034297  0.18057936    -0.01800
H510        H  0.86634130  0.71950423  0.16790470     0.10400
H511        H  0.87316842  0.61677270  0.12012848     0.08400
Br512      Br  0.79760871  0.59787015  0.10569376    -0.02200
C513        C  0.70829706  0.70544948  0.28287106    -0.08800
C514        C  0.74360953  0.72159137  0.29741954     0.07400
C515        C  0.77656928  0.73858719  0.27850211    -0.02600
C516        C  0.77329994  0.73516907  0.24616906    -0.07000
C517        C  0.73768088  0.71492796  0.23194266     0.06500
C518        C  0.70509104  0.70197041  0.25056044    -0.02100
Br519      Br  0.65516483  0.67817874  0.23358299    -0.01800
H520        H  0.68273626  0.69320689  0.29664818     0.10400
H521        H  0.79871460  0.74615414  0.23233193     0.08400
Br522      Br  0.82698803  0.76520479  0.29486813    -0.02200
C523        C  0.62832736  0.52696651  0.14300826    -0.08800
C524        C  0.62796191  0.55986572  0.13912588     0.07400
C525        C  0.59270551  0.55600022  0.13500931    -0.02600
C526        C  0.55937298  0.52008373  0.13457516    -0.07000
C527        C  0.55964857  0.48714887  0.13837574     0.06500
C528        C  0.59485216  0.49094708  0.14263483    -0.02100
Br529      Br  0.60003367  0.44870149  0.14750772    -0.01800
H530        H  0.65499000  0.52915600  0.14612813     0.10400
H531        H  0.53278353  0.51806100  0.13149402     0.08400
Br532      Br  0.58689788  0.59797172  0.13076604    -0.02200
C533        C  0.70687586  0.70878710  0.78101029    -0.08800
C534        C  0.72470086  0.74290012  0.79755973     0.07400
C535        C  0.74655169  0.77723642  0.78066265    -0.02600
C536        C  0.74636900  0.77688595  0.74812333    -0.07000
C537        C  0.72473842  0.74290873  0.73185304     0.06500
C538        C  0.70685145  0.70853440  0.74858694    -0.02100
Br539      Br  0.68094108  0.66021920  0.72851277    -0.01800
H540        H  0.69106068  0.68204190  0.79323570     0.10400
H541        H  0.76086527  0.80347374  0.73563329     0.08400
Br542      Br  0.77494553  0.82595804  0.79987350    -0.02200
C543        C  0.71220343  0.74307219  0.00957056    -0.08800
C544        C  0.72230351  0.72910894  0.98442020     0.07400
C545        C  0.73887209  0.70839162  0.99064436    -0.02600
C546        C  0.74331293  0.70072424  0.02138399    -0.07000
C547        C  0.73188655  0.71346716  0.04664667     0.06500
C548        C  0.71699727  0.73581056  0.04030851    -0.02100
Br549      Br  0.70159443  0.75681534  0.07191165    -0.01800
H550        H  0.69976190  0.75944545  0.00530281     0.10400
H551        H  0.75505298  0.68372106  0.02545010     0.08400
Br552      Br  0.75352858  0.68729100  0.95855443    -0.02200
C553        C  0.26785489  0.43427249  0.87824278    -0.08800
C554        C  0.30038583  0.46081739  0.89458813     0.07400
C555        C  0.30011626  0.48963071  0.91097289    -0.02600
C556        C  0.26753840  0.49074081  0.91134450    -0.07000
C557        C  0.23466272  0.46356058  0.89578711     0.06500
C558        C  0.23532803  0.43554489  0.87844892    -0.02100
Br559      Br  0.19369997  0.39915535  0.85341917    -0.01800
H560        H  0.26774676  0.41242152  0.86502550     0.10400
H561        H  0.26760844  0.51242521  0.92476311     0.08400
Br562      Br  0.34194894  0.52685752  0.93530125    -0.02200
C563        C  0.44314734  0.44115708  0.78890565    -0.08800
C564        C  0.40769690  0.41680587  0.80322771     0.07400
C565        C  0.37675276  0.39162923  0.78434858    -0.02600
C566        C  0.38067406  0.39456074  0.75195116    -0.07000
C567        C  0.41501949  0.42224147  0.73776511     0.06500
C568        C  0.44702910  0.44409530  0.75662356    -0.02100
Br569      Br  0.49671561  0.47944438  0.74000830    -0.01800
H570        H  0.46764173  0.45987545  0.80273177     0.10400
H571        H  0.35604251  0.37687199  0.73792285     0.08400
Br572      Br  0.32799436  0.35363658  0.80087539    -0.02200
C573        C  0.40775180  0.37669631  0.99103601    -0.08800
C574        C  0.39149687  0.39805242  0.98756320     0.07400
C575        C  0.37809848  0.40658114  0.01444653    -0.02600
C576        C  0.38402894  0.39663373  0.04387254    -0.07000
C577        C  0.40341433  0.37841142  0.04737334     0.06500
C578        C  0.41372329  0.36684580  0.02050484    -0.02100
Br579      Br  0.43605871  0.33749800  0.02240431    -0.01800
H580        H  0.41734157  0.36897408  0.97090113     0.10400
H581        H  0.37528798  0.40505761  0.06409098     0.08400
Br582      Br  0.35204974  0.43237487  0.01319936    -0.02200
C583        C  0.57361669  0.59906600  0.89720350    -0.08800
C584        C  0.57379315  0.63198747  0.89154738     0.07400
C585        C  0.53878697  0.62833214  0.88644650    -0.02600
C586        C  0.50498627  0.59258414  0.88804025    -0.07000
C587        C  0.50488708  0.55981131  0.89437497     0.06500
C588        C  0.54000117  0.56340036  0.89838955    -0.02100
Br589      Br  0.54517816  0.52123049  0.90420545    -0.01800
H590        H  0.60004608  0.60087328  0.90057837     0.10400
H591        H  0.47845271  0.59051355  0.88444281     0.08400
Br592      Br  0.53435149  0.67036706  0.87740386    -0.02200
C593        C  0.71215115  0.87230646  0.91280915    -0.08800
C594        C  0.68291346  0.84086586  0.89699659     0.07400
C595        C  0.65385710  0.84337524  0.88356041    -0.02600
C596        C  0.65416822  0.87646139  0.88659589    -0.07000
C597        C  0.68328229  0.90777605  0.90237970     0.06500
C598        C  0.71252431  0.90552520  0.91571028    -0.02100
Br599      Br  0.75225811  0.94562805  0.93985673    -0.01800
H600        H  0.73453666  0.87082621  0.92354528     0.10400
H601        H  0.63180135  0.87797952  0.87590533     0.08400
Br602      Br  0.61413295  0.80390860  0.85904219    -0.02200
C603        C  0.27171153  0.90844100  0.89002639    -0.08800
C604        C  0.30425960  0.90840148  0.88274187     0.07400
C605        C  0.29987411  0.87401236  0.87383222    -0.02600
C606        C  0.26385413  0.84053210  0.87470785    -0.07000
C607        C  0.23164357  0.84051316  0.88351868     0.06500
C608        C  0.23579521  0.87524818  0.89033668    -0.02100
Br609      Br  0.19453135  0.87986045  0.90248557    -0.01800
H610        H  0.27411211  0.93443583  0.89644232     0.10400
H611        H  0.26106320  0.81426282  0.86862726     0.08400
Br612      Br  0.34110529  0.87016147  0.86002547    -0.02200
C613        C  0.53868377  0.03216047  0.92684783    -0.08800
C614        C  0.50961088  0.00717269  0.90675892     0.07400
C615        C  0.51349667  0.98075732  0.89001949    -0.02600
C616        C  0.54592852  0.97984621  0.89361710    -0.07000
C617        C  0.57536582  0.00537671  0.91314270     0.06500
C618        C  0.57134351  0.03153051  0.93016892    -0.02100
Br619      Br  0.60861237  0.06638149  0.95900561    -0.01800
H620        H  0.53601366  0.05235361  0.94013819     0.10400
H621        H  0.54881113  0.96005081  0.87998437     0.08400
Br622      Br  0.47754817  0.94741260  0.85972791    -0.02200
C623        C  0.90199937  0.25991517  0.16664960    -0.08800
C624        C  0.90257026  0.29238603  0.15823291     0.07400
C625        C  0.86800222  0.28862712  0.15098005    -0.02600
C626        C  0.83410514  0.25302241  0.15240635    -0.07000
C627        C  0.83356256  0.22042759  0.16052511     0.06500
C628        C  0.86821299  0.22430862  0.16789748    -0.02100
Br629      Br  0.87222074  0.18291509  0.18055094    -0.01800
H630        H  0.92815248  0.26218763  0.17248610     0.10400
H631        H  0.80803308  0.25076141  0.14627811     0.08400
Br632      Br  0.86490869  0.33005770  0.13679139    -0.02200
C633        C  0.70684432  0.02040559  0.02495986    -0.08800
C634        C  0.72110663  0.04799843  0.00124188     0.07400
C635        C  0.74357542  0.08643295  0.00966712    -0.02600
C636        C  0.74824347  0.09623247  0.04095457    -0.07000
C637        C  0.73107890  0.06873038  0.06457923     0.06500
C638        C  0.71169775  0.03027332  0.05631728    -0.02100
Br639      Br  0.68896235  0.98964984  0.08609722    -0.01800
H640        H  0.69032192  0.99054928  0.01914331     0.10400
H641        H  0.76432008  0.12605502  0.04677983     0.08400
Br642      Br  0.76712821  0.12750102  0.98031403    -0.02200
C643        C  0.42153321  0.20948085  0.13607823    -0.08800
C644        C  0.45401856  0.21218456  0.14765771     0.07400
C645        C  0.48538229  0.24807517  0.15591455    -0.02600
C646        C  0.48375453  0.28007004  0.15204806    -0.07000
C647        C  0.45127633  0.27734099  0.14038962     0.06500
C648        C  0.41983240  0.24138558  0.13234045    -0.02100
Br649      Br  0.37416849  0.23334736  0.11481236    -0.01800
H650        H  0.39726098  0.18227179  0.12927277     0.10400
H651        H  0.50799756  0.30735216  0.15886756     0.08400
Br652      Br  0.53059185  0.25565555  0.17397760    -0.02200
C653        C  0.42765090  0.09548989  0.03207740    -0.08800
C654        C  0.41341129  0.06713481  0.05508279     0.07400
C655        C  0.39328487  0.02899832  0.04582121    -0.02600
C656        C  0.38936082  0.02031912  0.01422697    -0.07000
C657        C  0.40587047  0.04886426  0.99128714     0.06500
C658        C  0.42460346  0.08692659  0.00060821    -0.02100
Br659      Br  0.44998062  0.12922944  0.97247242    -0.01800
H660        H  0.44300610  0.12499330  0.03856866     0.10400
H661        H  0.37469874  0.99087114  0.00765740     0.08400
Br662      Br  0.37344433  0.98740053  0.07451077    -0.02200
C663        C  0.56387725  0.09405438  0.12440112    -0.08800
C664        C  0.55990886  0.11762602  0.14471861     0.07400
C665        C  0.58977026  0.14096941  0.16508199    -0.02600
C666        C  0.62223227  0.13970020  0.16512565    -0.07000
C667        C  0.62588235  0.11545531  0.14534628     0.06500
C668        C  0.59635378  0.09279507  0.12441396    -0.02100
Br669      Br  0.59841000  0.06024772  0.09456179    -0.01800
H670        H  0.54139522  0.07626728  0.10831787     0.10400
H671        H  0.64444687  0.15719024  0.18151782     0.08400
Br672      Br  0.58735265  0.17321187  0.19504251    -0.02200
C673        C  0.65008845  0.84322998  0.65437750    -0.08800
C674        C  0.68301764  0.84690516  0.64230660     0.07400
C675        C  0.71294027  0.88273110  0.63194622    -0.02600
C676        C  0.71032601  0.91409810  0.63536193    -0.07000
C677        C  0.67799519  0.91087345  0.64839853     0.06500
C678        C  0.64715004  0.87461465  0.65728933    -0.02100
Br679      Br  0.60047405  0.86545942  0.67398991    -0.01800
H680        H  0.62658260  0.81580319  0.66200431     0.10400
H681        H  0.73382184  0.94127984  0.62730927     0.08400
Br682      Br  0.75719639  0.89078598  0.61101187    -0.02200
C683        C  0.69441024  0.06446922  0.76426387    -0.08800
C684        C  0.71964799  0.05789096  0.74876340     0.07400
C685        C  0.74545919  0.05396974  0.76640395    -0.02600
C686        C  0.74285193  0.05257921  0.79890058    -0.07000
C687        C  0.71438761  0.05446603  0.81413000     0.06500
C688        C  0.69129477  0.06237278  0.79658039    -0.02100
Br689      Br  0.65344818  0.06838747  0.81541930    -0.01800
H690        H  0.67463148  0.06804207  0.75113521     0.10400
H691        H  0.76121736  0.04708679  0.81210299     0.08400
Br692      Br  0.78389817  0.04928189  0.74724688    -0.02200
C693        C  0.27611496  0.90306979  0.66976202    -0.08800
C694        C  0.30911051  0.90734664  0.65730098     0.07400
C695        C  0.30728591  0.87538726  0.64500717    -0.02600
C696        C  0.27273015  0.84049943  0.64481879    -0.07000
C697        C  0.23953856  0.83656607  0.65640586     0.06500
C698        C  0.24162785  0.86822666  0.66957088    -0.02100
Br699      Br  0.19916315  0.86606682  0.68871064    -0.01800
H700        H  0.27705372  0.92709476  0.67976779     0.10400
H701        H  0.27163131  0.81648000  0.63456385     0.08400
Br702      Br  0.34975998  0.87730494  0.62614767    -0.02200
C703        C  0.45050788  0.08688912  0.75727910    -0.08800
C704        C  0.41506180  0.06796689  0.74262174     0.07400
C705        C  0.38215612  0.05351247  0.76129819    -0.02600
C706        C  0.38504153  0.05392523  0.79360631    -0.07000
C707        C  0.42000060  0.06758263  0.80797552     0.06500
C708        C  0.45323225  0.08645839  0.78958193    -0.02100
Br709      Br  0.50307861  0.10995269  0.80668083    -0.01800
H710        H  0.47621043  0.09924550  0.74361805     0.10400
H711        H  0.35926338  0.04013086  0.80730983     0.08400
Br712      Br  0.33180259  0.02900572  0.74498935    -0.02200
C713        C  0.53897540  0.03484592  0.63214716    -0.08800
C714        C  0.51115553  0.01489357  0.65517839     0.07400
C715        C  0.51704756  0.99401323  0.67757718    -0.02600
C716        C  0.54973977  0.99303557  0.67607074    -0.07000
C717        C  0.57758092  0.01337958  0.65323658     0.06500
C718        C  0.57191853  0.03447812  0.63108474    -0.02100
Br719      Br  0.60711374  0.06219294  0.59787385    -0.01800
H720        H  0.53514054  0.05088807  0.61460996     0.10400
H721        H  0.55400898  0.97721452  0.69352873     0.08400
Br722      Br  0.48328325  0.96788032  0.71193570    -0.02200
C723        C  0.87790014  0.29915740  0.41860551    -0.08800
C724        C  0.90747786  0.30440891  0.39945914     0.07400
C725        C  0.90053871  0.27526719  0.37900731    -0.02600
C726        C  0.86494706  0.24139019  0.37881032    -0.07000
C727        C  0.83573091  0.23562501  0.39873093     0.06500
C728        C  0.84243113  0.26514998  0.41866394    -0.02100
Br729      Br  0.80601216  0.26008651  0.44868521    -0.01800
H730        H  0.88280761  0.32111570  0.43456670     0.10400
H731        H  0.86022525  0.21923271  0.36315669     0.08400
Br732      Br  0.93784490  0.28005278  0.35012105    -0.02200
C733        C  0.74859941  0.08031127  0.26471017    -0.08800
C734        C  0.71420614  0.06783838  0.24972680     0.07400
C735        C  0.68132974  0.05458395  0.26810075    -0.02600
C736        C  0.68431000  0.05803522  0.30040495    -0.07000
C737        C  0.71959521  0.07479787  0.31511601     0.06500
C738        C  0.75171812  0.08440814  0.29694561    -0.02100
Br739      Br  0.80190280  0.10857462  0.31344901    -0.01800
H740        H  0.77404284  0.09035273  0.25122480     0.10400
H741        H  0.65916928  0.04965059  0.31390519     0.08400
Br742      Br  0.63180426  0.03350802  0.25086764    -0.02200
C743        C  0.72039294  0.04701126  0.50618883    -0.08800
C744        C  0.73897914  0.08589498  0.50007493     0.07400
C745        C  0.75460466  0.11126421  0.52531840    -0.02600
C746        C  0.74857760  0.09728769  0.55574908    -0.07000
C747        C  0.72707948  0.05834300  0.56184083     0.06500
C748        C  0.71446530  0.03312826  0.53658485    -0.02100
Br749      Br  0.68893876  0.97932564  0.54181164    -0.01800
H750        H  0.70901050  0.02704852  0.48731083     0.10400
H751        H  0.75909191  0.11703744  0.57479573     0.08400
Br752      Br  0.78386797  0.16530503  0.52052523    -0.02200
C753        C  0.49506474  0.25934239  0.40382276    -0.08800
C754        C  0.46353722  0.22593589  0.39207179     0.07400
C755        C  0.43325328  0.22729642  0.37976256    -0.02600
C756        C  0.43456414  0.26105532  0.38027736    -0.07000
C757        C  0.46551894  0.29410257  0.39274815     0.06500
C758        C  0.49621380  0.29314225  0.40448213    -0.02100
Br759      Br  0.53895633  0.33579155  0.42409161    -0.01800
H760        H  0.51851957  0.25894862  0.41361529     0.10400
H761        H  0.41096869  0.26138708  0.37084070     0.08400
Br762      Br  0.38917391  0.18472046  0.36139299    -0.02200
C763        C  0.44442328  0.06265318  0.25934681    -0.08800
C764        C  0.41885186  0.06798333  0.24305778     0.07400
C765        C  0.39285473  0.07252311  0.26027264    -0.02600
C766        C  0.39577717  0.07565182  0.29269669    -0.07000
C767        C  0.42457654  0.07499418  0.30828280     0.06500
C768        C  0.44784652  0.06660499  0.29142518    -0.02100
Br769      Br  0.48642685  0.06223668  0.31057438    -0.01800
H770        H  0.46406251  0.05812274  0.24687647     0.10400
H771        H  0.37740171  0.08168009  0.30545994     0.08400
Br772      Br  0.35526242  0.07843060  0.24125520    -0.02200
C773        C  0.41621273  0.09913087  0.51669031    -0.08800
C774        C  0.41246703  0.07368117  0.49374877     0.07400
C775        C  0.40196369  0.03705829  0.50306280    -0.02600
C776        C  0.39805463  0.02782039  0.53459753    -0.07000
C777        C  0.40447480  0.05418042  0.55766326     0.06500
C778        C  0.41226329  0.08984349  0.54826648    -0.02100
Br779      Br  0.41852514  0.12761134  0.57682718    -0.01800
H780        H  0.42354409  0.12725158  0.51008734     0.10400
H781        H  0.39139145  0.99988120  0.54109545     0.08400
Br782      Br  0.39526163  0.99889955  0.47469138    -0.02200
C783        C  0.56012949  0.09003682  0.41746000    -0.08800
C784        C  0.56214571  0.12339101  0.40956588     0.07400
C785        C  0.59783006  0.15637553  0.40298126    -0.02600
C786        C  0.63031000  0.15529939  0.40421740    -0.07000
C787        C  0.62840220  0.12188654  0.41177072     0.06500
C788        C  0.59264703  0.08892374  0.41875491    -0.02100
Br789      Br  0.58518091  0.04102773  0.42947227    -0.01800
H790        H  0.53293483  0.06444431  0.42262993     0.10400
H791        H  0.65735146  0.18092741  0.39868403     0.08400
Br792      Br  0.60453885  0.20330845  0.39006576    -0.02200
loop_ 
_geom_bond_atom_site_label_1 
_geom_bond_atom_site_label_2 
_geom_bond_distance 
_geom_bond_site_symmetry_2 
_ccdc_geom_bond_type 
O1            C4   1.267       .  A
O1           Cd6   2.474       .  S
C2           O11   1.266       .  A
C2            O7   1.265       .  A
C2          C784   1.476       .  S
O3            C9   1.266       .  A
O3           Cd6   2.498       .  S
C4           O12   1.265       .  A
C4          C754   1.484       .  S
C5           O10   1.270       .  A
C5            O8   1.262       .  A
C5          C767   1.478       .  S
Cd6          O13   2.439       .  S
Cd6          O12   2.432       .  S
Cd6          O11   2.443       .  S
Cd6           O7   2.438       .  S
Cd6          O10   2.518       .  S
Cd6           O8   2.409       .  S
C9           O13   1.262       .  A
C9          C774   1.487       .  S
O14          C17   1.264       .  A
O14         Cd19   2.454       .  S
C15          O24   1.265       .  A
C15          O20   1.268       .  A
C15         C787   1.481       .  S
O16          C22   1.263       .  A
O16         Cd19   2.456       .  S
C17          O25   1.266       .  A
C17         C727   1.480       .  S
C18          O23   1.269       .  A
C18          O21   1.259       .  A
C18         C744   1.488       .  S
Cd19         O26   2.494       .  S
Cd19         O25   2.459       .  S
Cd19         O24   2.438       .  S
Cd19         O20   2.435       .  S
Cd19         O23   2.507       .  S
Cd19         O21   2.440       .  S
C22          O26   1.266       .  A
C22         C737   1.487       .  S
O27          C30   1.265   1_565  A
O27         Cd32   2.461   1_565  S
C28          O37   1.266       .  A
C28          O33   1.265       .  A
C28         C694   1.477       .  S
O29          C35   1.262       .  A
O29         Cd32   2.468       .  S
C30          O38   1.267       .  A
C30         C714   1.486       .  S
C31          O36   1.268       .  A
C31          O34   1.261       .  A
C31         C777   1.489       .  S
Cd32         O39   2.473       .  S
Cd32         O38   2.452       .  S
Cd32         O37   2.436   1_545  S
Cd32         O33   2.446   1_545  S
Cd32         O36   2.510       .  S
Cd32         O34   2.425       .  S
C35          O39   1.265       .  A
C35         C704   1.488       .  S
O40          C43   1.269       .  A
O40         Cd45   2.479   1_565  S
C41          O50   1.263       .  A
C41          O46   1.269   1_545  A
C41         C717   1.479       .  S
O42          C48   1.262       .  A
O42         Cd45   2.484       .  S
C43          O51   1.267       .  A
C43         C677   1.485       .  S
C44          O49   1.271       .  A
C44          O47   1.260       .  A
C44         C747   1.482       .  S
Cd45         O52   2.492       .  S
Cd45         O51   2.416   1_545  S
Cd45         O50   2.434       .  S
Cd45         O46   2.484   1_545  S
Cd45         O49   2.517       .  S
Cd45         O47   2.411       .  S
C48          O52   1.264       .  A
C48         C684   1.482       .  S
O53          C56   1.266       .  A
O53         Cd58   2.460       .  S
C54          O63   1.268       .  A
C54          O59   1.268       .  A
C54         C664   1.478       .  S
O55          C61   1.265       .  A
O55         Cd58   2.508       .  S
C56          O64   1.265       .  A
C56         C644   1.480       .  S
C57          O62   1.270       .  A
C57          O60   1.261       .  A
C57         C654   1.483       .  S
Cd58         O65   2.423       .  S
Cd58         O64   2.432       .  S
Cd58         O63   2.430       .  S
Cd58         O59   2.445       .  S
Cd58         O62   2.507       .  S
Cd58         O60   2.389       .  S
C61          O65   1.261       .  A
C61         C764   1.487       .  S
O66          C69   1.267       .  A
O66         Cd71   2.476       .  S
C67          O76   1.266       .  A
C67          O72   1.268       .  A
C67         C667   1.482       .  S
O68          C74   1.268       .  A
O68         Cd71   2.505       .  S
C69          O77   1.263       .  A
C69         C627   1.487       .  S
C70          O75   1.261       .  A
C70          O73   1.265       .  A
C70         C734   1.486       .  S
Cd71         O78   2.409       .  S
Cd71         O77   2.454       .  S
Cd71         O76   2.455       .  S
Cd71         O72   2.449       .  S
Cd71         O75   2.465       .  S
Cd71         O73   2.485       .  S
C74          O78   1.262       .  A
C74         C637   1.484       .  S
O79          C82   1.266       .  A
O79         Cd84   2.478   1_565  S
C80          O89   1.267       .  A
C80          O85   1.266   1_545  A
C80         C614   1.478       .  S
O81          C87   1.264       .  A
O81         Cd84   2.473       .  S
C82          O90   1.265       .  A
C82         C604   1.484       .  S
C83          O88   1.267       .  A
C83          O86   1.262       .  A
C83         C657   1.483       .  S
Cd84         O91   2.468       .  S
Cd84         O90   2.413   1_545  S
Cd84         O89   2.452       .  S
Cd84         O85   2.438   1_545  S
Cd84         O88   2.475       .  S
Cd84         O86   2.432       .  S
C87          O91   1.262       .  A
C87         C707   1.483       .  S
O92          C95   1.268   1_565  A
O92         Cd97   2.453   1_565  S
C93         O102   1.265       .  A
C93          O98   1.267       .  A
C93         C597   1.474       .  S
O94         C100   1.269       .  A
O94         Cd97   2.525       .  S
C95         O103   1.266       .  A
C95         C617   1.478       .  S
C96         O101   1.269       .  A
C96          O99   1.264       .  A
C96         C634   1.487   1_556  S
Cd97        O104   2.419       .  S
Cd97        O103   2.438       .  S
Cd97        O102   2.442   1_545  S
Cd97         O98   2.444   1_545  S
Cd97        O101   2.481       .  S
Cd97         O99   2.428       .  S
C100        O104   1.261       .  A
C100        C687   1.479       .  S
O105        C108   1.267       .  A
O105       Cd110   2.475       .  S
C106        O115   1.267       .  A
C106        O111   1.265       .  A
C106        C554   1.483       .  S
O107        C113   1.265       .  A
O107       Cd110   2.499       .  S
C108        O116   1.265       .  A
C108        C587   1.487       .  S
C109        O114   1.268       .  A
C109        O112   1.260       .  A
C109        C574   1.490       .  S
Cd110       O117   2.458       .  S
Cd110       O116   2.448       .  S
Cd110       O115   2.474       .  S
Cd110       O111   2.453       .  S
Cd110       O114   2.523       .  S
Cd110       O112   2.449       .  S
C113        O117   1.262       .  A
C113        C564   1.490       .  S
O118        C121   1.268       .  A
O118       Cd123   2.479       .  S
C119        O128   1.266       .  A
C119        O124   1.267       .  A
C119        C594   1.480       .  S
O120        C126   1.269       .  A
O120       Cd123   2.511       .  S
C121        O129   1.266       .  A
C121        C584   1.489       .  S
C122        O127   1.263       .  A
C122        O125   1.263       .  A
C122        C534   1.493       .  S
Cd123       O130   2.432       .  S
Cd123       O129   2.432       .  S
Cd123       O128   2.459       .  S
Cd123       O124   2.448       .  S
Cd123       O127   2.479       .  S
Cd123       O125   2.498       .  S
C126        O130   1.262       .  A
C126        C544   1.486       .  S
O131        C134   1.266       .  A
O131       Cd136   2.463       .  S
C132        O141   1.264       .  A
C132        O137   1.268       .  A
C132        C524   1.487       .  S
O133        C139   1.265       .  A
O133       Cd136   2.507       .  S
C134        O142   1.266       .  A
C134        C504   1.478       .  S
C135        O140   1.267       .  A
C135        O138   1.263       .  A
C135        C547   1.494       .  S
Cd136       O143   2.472       .  S
Cd136       O142   2.448       .  S
Cd136       O141   2.433       .  S
Cd136       O137   2.481       .  S
Cd136       O140   2.505       .  S
Cd136       O138   2.460       .  S
C139        O143   1.262       .  A
C139        C517   1.488       .  S
O144        C147   1.266       .  A
O144       Cd149   2.474       .  S
C145        O154   1.266       .  A
C145        O150   1.269       .  A
C145        C647   1.480       .  S
O146        C152   1.266       .  A
O146       Cd149   2.499       .  S
C147        O155   1.265       .  A
C147        C527   1.488       .  S
C148        O153   1.261       .  A
C148        O151   1.270       .  A
C148        C577   1.485       .  S
Cd149       O156   2.467       .  S
Cd149       O155   2.449       .  S
Cd149       O154   2.436       .  S
Cd149       O150   2.449       .  S
Cd149       O153   2.430       .  S
Cd149       O151   2.516       .  S
C152        O156   1.260       .  A
C152        C494   1.489       .  S
O157        C160   1.265       .  A
O157       Cd162   2.449       .  S
C158        O167   1.266       .  A
C158        O163   1.268       .  A
C158        C484   1.485       .  S
O159        C165   1.267       .  A
O159       Cd162   2.509       .  S
C160        O168   1.264       .  A
C160        C464   1.479       .  S
C161        O166   1.269       .  A
C161        O164   1.261       .  A
C161        C474   1.492       .  S
Cd162       O169   2.452       .  S
Cd162       O168   2.458       .  S
Cd162       O167   2.444       .  S
Cd162       O163   2.455       .  S
Cd162       O166   2.509       .  S
Cd162       O164   2.452       .  S
C165        O169   1.261       .  A
C165        C567   1.485       .  S
O170        C173   1.266       .  A
O170       Cd175   2.461       .  S
C171        O180   1.267       .  A
C171        O176   1.266       .  A
C171        C487   1.484       .  S
O172        C178   1.266       .  A
O172       Cd175   2.494       .  S
C173        O181   1.266       .  A
C173        C674   1.480       .  S
C174        O179   1.260       .  A
C174        O177   1.267       .  A
C174        C537   1.482       .  S
Cd175       O182   2.453       .  S
Cd175       O181   2.449       .  S
Cd175       O180   2.441       .  S
Cd175       O176   2.460       .  S
Cd175       O179   2.430       .  S
Cd175       O177   2.521       .  S
C178        O182   1.262       .  A
C178        C454   1.483       .  S
O183        C186   1.265       .  A
O183       Cd188   2.465       .  S
C184        O193   1.268       .  A
C184        O189   1.267       .  A
C184        C434   1.484       .  S
O185        C191   1.261       .  A
O185       Cd188   2.470       .  S
C186        O194   1.266       .  A
C186        C447   1.485       .  S
C187        O192   1.269       .  A
C187        O190   1.261       .  A
C187        C457   1.491       .  S
Cd188       O195   2.498       .  S
Cd188       O194   2.449       .  S
Cd188       O193   2.433       .  S
Cd188       O189   2.451       .  S
Cd188       O192   2.522       .  S
Cd188       O190   2.422       .  S
C191        O195   1.266       .  A
C191        C514   1.492       .  S
O196        C199   1.265       .  A
O196       Cd201   2.465       .  S
C197        O206   1.267       .  A
C197        O202   1.269       .  A
C197        C444   1.483       .  S
O198        C204   1.261       .  A
O198       Cd201   2.459       .  S
C199        O207   1.265       .  A
C199        C757   1.479       .  S
C200        O205   1.271       .  A
C200        O203   1.259       .  A
C200        C477   1.494       .  S
Cd201       O208   2.524       .  S
Cd201       O207   2.443       .  S
Cd201       O206   2.442       .  S
Cd201       O202   2.444       .  S
Cd201       O205   2.544       .  S
Cd201       O203   2.433       .  S
C204        O208   1.269       .  A
C204        C497   1.489       .  S
O209        C212   1.265       .  A
O209       Cd214   2.436       .  S
C210        O219   1.265       .  A
C210        O215   1.269       .  A
C210        C427   1.482       .  S
O211        C217   1.269       .  A
O211       Cd214   2.487       .  S
C212        O220   1.267       .  A
C212        C467   1.480       .  S
C213        O218   1.262       .  A
C213        O216   1.270       .  A
C213        C404   1.476       .  S
Cd214       O221   2.446       .  S
Cd214       O220   2.451       .  S
Cd214       O219   2.432       .  S
Cd214       O215   2.452       .  S
Cd214       O218   2.399       .  S
Cd214       O216   2.521       .  S
C217        O221   1.263       .  A
C217        C417   1.491       .  S
O222        C225   1.266       .  A
O222       Cd227   2.451       .  S
C223        O232   1.263       .  A
C223        O228   1.265       .  A
C223        C697   1.476       .  S
O224        C230   1.268       .  A
O224       Cd227   2.495       .  S
C225        O233   1.268       .  A
C225        C424   1.481       .  S
C226        O231   1.265       .  A
C226        O229   1.262       .  A
C226        C384   1.484       .  S
Cd227       O234   2.436       .  S
Cd227       O233   2.433       .  S
Cd227       O232   2.435       .  S
Cd227       O228   2.458       .  S
Cd227       O231   2.497       .  S
Cd227       O229   2.440       .  S
C230        O234   1.261       .  A
C230        C394   1.486       .  S
O235        C238   1.265   1_655  A
O235       Cd240   2.448   1_655  S
C236        O245   1.264       .  A
C236        O241   1.266       .  A
C236        C724   1.479       .  S
O237        C243   1.266       .  A
O237       Cd240   2.486       .  S
C238        O246   1.268       .  A
C238        C374   1.485       .  S
C239        O244   1.266       .  A
C239        O242   1.262       .  A
C239        C414   1.489       .  S
Cd240       O247   2.463       .  S
Cd240       O246   2.456       .  S
Cd240       O245   2.456   1_455  S
Cd240       O241   2.469   1_455  S
Cd240       O244   2.520       .  S
Cd240       O242   2.439       .  S
C243        O247   1.263       .  A
C243        C367   1.482       .  S
O248        C251   1.267       .  A
O248       Cd253   2.453   1_655  S
C249        O258   1.266       .  A
C249        O254   1.270   1_455  A
C249        C377   1.482       .  S
O250        C256   1.271       .  A
O250       Cd253   2.521       .  S
C251        O259   1.264       .  A
C251        C437   1.484       .  S
C252        O257   1.272       .  A
C252        O255   1.262       .  A
C252        C397   1.484       .  S
Cd253       O260   2.414       .  S
Cd253       O259   2.445   1_455  S
Cd253       O258   2.433       .  S
Cd253       O254   2.443   1_455  S
Cd253       O257   2.502       .  S
Cd253       O255   2.418       .  S
C256        O260   1.263       .  A
C256        C354   1.481       .  S
O261        C264   1.268       .  A
O261       Cd266   2.468       .  S
C262        O271   1.267       .  A
C262        O267   1.267       .  A
C262        C347   1.484       .  S
O263        C269   1.269       .  A
O263       Cd266   2.509       .  S
C264        O272   1.264       .  A
C264        C557   1.482       .  S
C265        O270   1.268       .  A
C265        O268   1.264       .  A
C265        C337   1.483       .  S
Cd266       O273   2.418       .  S
Cd266       O272   2.441       .  S
Cd266       O271   2.460       .  S
Cd266       O267   2.449       .  S
Cd266       O270   2.473       .  S
Cd266       O268   2.449       .  S
C269        O273   1.263       .  A
C269        C407   1.476       .  S
O274        C277   1.268       .  A
O274       Cd279   2.434       .  S
C275        O284   1.265       .  A
C275        O280   1.265       .  A
C275        C607   1.480       .  S
O276        C282   1.269       .  A
O276       Cd279   2.519       .  S
C277        O285   1.267       .  A
C277        C344   1.484       .  S
C278        O283   1.270       .  A
C278        O281   1.260       .  A
C278        C324   1.490       .  S
Cd279       O286   2.404       .  S
Cd279       O285   2.459       .  S
Cd279       O284   2.457       .  S
Cd279       O280   2.458       .  S
Cd279       O283   2.513       .  S
Cd279       O281   2.424       .  S
C282        O286   1.260       .  A
C282        C387   1.478       .  S
O287        C290   1.266       .  A
O287       Cd292   2.472   1_655  S
C288        O297   1.265       .  A
C288        O293   1.269   1_455  A
C288        C314   1.483       .  S
O289        C295   1.266       .  A
O289       Cd292   2.509       .  S
C290        O298   1.266       .  A
C290        C624   1.484       .  S
C291        O296   1.267       .  A
C291        O294   1.262       .  A
C291        C334   1.490       .  S
Cd292       O299   2.443       .  S
Cd292       O298   2.454   1_455  S
Cd292       O297   2.435       .  S
Cd292       O293   2.465   1_455  S
Cd292       O296   2.520       .  S
Cd292       O294   2.421       .  S
C295        O299   1.261       .  A
C295        C364   1.481       .  S
O300        C303   1.265   1_655  A
O300       Cd305   2.456   1_655  S
C301        O310   1.265       .  A
C301        O306   1.266       .  A
C301        C507   1.482       .  S
O302        C308   1.270       .  A
O302       Cd305   2.538       .  S
C303        O311   1.268       .  A
C303        C317   1.485       .  S
C304        O309   1.271       .  A
C304        O307   1.261       .  A
C304        C327   1.490       .  S
Cd305       O312   2.417       .  S
Cd305       O311   2.458       .  S
Cd305       O310   2.445   1_455  S
Cd305       O306   2.458   1_455  S
Cd305       O309   2.522       .  S
Cd305       O307   2.435       .  S
C308        O312   1.262       .  A
C308        C357   1.480       .  S
C313        C314   1.405   1_655  A
C313        C318   1.400       .  A
C313        H320   1.084       .  S
C314        C315   1.414       .  A
C315        C316   1.398       .  A
C315       Br322   1.923       .  S
C316        C317   1.405       .  A
C316        H321   1.083       .  S
C317        C318   1.415   1_455  A
C318       Br319   1.921       .  S
C323        C324   1.404       .  A
C323        C328   1.401   1_556  A
C323        H330   1.083       .  S
C324        C325   1.418   1_556  A
C325        C326   1.402       .  A
C325       Br332   1.923       .  S
C326        C327   1.403       .  A
C326        H331   1.082       .  S
C327        C328   1.417       .  A
C328       Br329   1.922   1_455  S
C333        C334   1.407       .  A
C333        C338   1.395       .  A
C333        H340   1.087       .  S
C334        C335   1.415       .  A
C335        C336   1.403       .  A
C335       Br342   1.920       .  S
C336        C337   1.407   1_554  A
C336        H341   1.087       .  S
C337        C338   1.410   1_556  A
C338       Br339   1.922   1_554  S
C343        C344   1.404       .  A
C343        C348   1.396       .  A
C343        H350   1.083       .  S
C344        C345   1.414       .  A
C345        C346   1.401       .  A
C345       Br352   1.922       .  S
C346        C347   1.407       .  A
C346        H351   1.083       .  S
C347        C348   1.413       .  A
C348       Br349   1.922       .  S
C353        C354   1.403       .  A
C353        C358   1.396       .  A
C353        H360   1.085       .  S
C354        C355   1.412       .  A
C355        C356   1.408       .  A
C355       Br362   1.919       .  S
C356        C357   1.406       .  A
C356        H361   1.085       .  S
C357        C358   1.409       .  A
C358       Br359   1.922       .  S
C363        C364   1.405       .  A
C363        C368   1.400       .  A
C363        H370   1.083       .  S
C364        C365   1.412       .  A
C365        C366   1.401       .  A
C365       Br372   1.920       .  S
C366        C367   1.406       .  A
C366        H371   1.082       .  S
C367        C368   1.411       .  A
C368       Br369   1.920       .  S
C373        C374   1.406       .  A
C373        C378   1.398       .  A
C373        H380   1.083       .  S
C374        C375   1.416   1_455  A
C375        C376   1.397       .  A
C375       Br382   1.922       .  S
C376        C377   1.404   1_655  A
C376        H381   1.083       .  S
C377        C378   1.414       .  A
C378       Br379   1.923       .  S
C383        C384   1.405       .  A
C383        C388   1.395       .  A
C383        H390   1.081       .  S
C384        C385   1.415       .  A
C385        C386   1.404       .  A
C385       Br392   1.920       .  S
C386        C387   1.404       .  A
C386        H391   1.082       .  S
C387        C388   1.410       .  A
C388       Br389   1.923       .  S
C393        C394   1.404       .  A
C393        C398   1.399       .  A
C393        H400   1.084       .  S
C394        C395   1.417       .  A
C395        C396   1.400       .  A
C395       Br402   1.922       .  S
C396        C397   1.402       .  A
C396        H401   1.082       .  S
C397        C398   1.415       .  A
C398       Br399   1.922   1_455  S
C403        C404   1.403       .  A
C403        C408   1.395       .  A
C403        H410   1.086       .  S
C404        C405   1.410       .  A
C405        C406   1.405       .  A
C405       Br412   1.919       .  S
C406        C407   1.406       .  A
C406        H411   1.085       .  S
C407        C408   1.409       .  A
C408       Br409   1.921       .  S
C413        C414   1.407       .  A
C413        C418   1.398       .  A
C413        H420   1.084       .  S
C414        C415   1.413       .  A
C415        C416   1.403       .  A
C415       Br422   1.921       .  S
C416        C417   1.410       .  A
C416        H421   1.085       .  S
C417        C418   1.413       .  A
C418       Br419   1.921       .  S
C423        C424   1.404       .  A
C423        C428   1.396       .  A
C423        H430   1.084       .  S
C424        C425   1.413       .  A
C425        C426   1.398       .  A
C425       Br432   1.921       .  S
C426        C427   1.405       .  A
C426        H431   1.084       .  S
C427        C428   1.415       .  A
C428       Br429   1.923       .  S
C433        C434   1.406       .  A
C433        C438   1.397       .  A
C433        H440   1.083       .  S
C434        C435   1.414       .  A
C435        C436   1.398       .  A
C435       Br442   1.922       .  S
C436        C437   1.406       .  A
C436        H441   1.082       .  S
C437        C438   1.414       .  A
C438       Br439   1.923       .  S
C443        C444   1.405       .  A
C443        C448   1.399       .  A
C443        H450   1.086       .  S
C444        C445   1.413       .  A
C445        C446   1.398       .  A
C445       Br452   1.922       .  S
C446        C447   1.406       .  A
C446        H451   1.085       .  S
C447        C448   1.414       .  A
C448       Br449   1.922       .  S
C453        C454   1.407       .  A
C453        C458   1.403       .  A
C453        H460   1.080       .  S
C454        C455   1.410       .  A
C455        C456   1.398       .  A
C455       Br462   1.922       .  S
C456        C457   1.410       .  A
C456        H461   1.081       .  S
C457        C458   1.414       .  A
C458       Br459   1.919       .  S
C463        C464   1.403       .  A
C463        C468   1.396       .  A
C463        H470   1.084       .  S
C464        C465   1.412       .  A
C465        C466   1.399       .  A
C465       Br472   1.922       .  S
C466        C467   1.406       .  A
C466        H471   1.084       .  S
C467        C468   1.413       .  A
C468       Br469   1.923       .  S
C473        C474   1.403       .  A
C473        C478   1.401       .  A
C473        H480   1.084       .  S
C474        C475   1.418       .  A
C475        C476   1.404       .  A
C475       Br482   1.922       .  S
C476        C477   1.404       .  A
C476        H481   1.083       .  S
C477        C478   1.419       .  A
C478       Br479   1.923       .  S
C483        C484   1.407       .  A
C483        C488   1.399       .  A
C483        H490   1.084       .  S
C484        C485   1.415       .  A
C485        C486   1.397       .  A
C485       Br492   1.923       .  S
C486        C487   1.405       .  A
C486        H491   1.084       .  S
C487        C488   1.414       .  A
C488       Br489   1.922       .  S
C493        C494   1.405       .  A
C493        C498   1.401       .  A
C493        H500   1.081       .  S
C494        C495   1.416       .  A
C495        C496   1.405       .  A
C495       Br502   1.922       .  S
C496        C497   1.406       .  A
C496        H501   1.081       .  S
C497        C498   1.414       .  A
C498       Br499   1.920       .  S
C503        C504   1.403       .  A
C503        C508   1.398       .  A
C503        H510   1.083       .  S
C504        C505   1.411       .  A
C505        C506   1.399       .  A
C505       Br512   1.921       .  S
C506        C507   1.406       .  A
C506        H511   1.084       .  S
C507        C508   1.414       .  A
C508       Br509   1.922       .  S
C513        C514   1.407       .  A
C513        C518   1.402       .  A
C513        H520   1.079       .  S
C514        C515   1.416       .  A
C515        C516   1.403       .  A
C515       Br522   1.922       .  S
C516        C517   1.405       .  A
C516        H521   1.080       .  S
C517        C518   1.413       .  A
C518       Br519   1.921       .  S
C523        C524   1.406       .  A
C523        C528   1.402       .  A
C523        H530   1.085       .  S
C524        C525   1.415       .  A
C525        C526   1.397       .  A
C525       Br532   1.924       .  S
C526        C527   1.405       .  A
C526        H531   1.085       .  S
C527        C528   1.415       .  A
C528       Br529   1.922       .  S
C533        C534   1.408       .  A
C533        C538   1.399       .  A
C533        H540   1.081       .  S
C534        C535   1.418       .  A
C535        C536   1.404       .  A
C535       Br542   1.921       .  S
C536        C537   1.403       .  A
C536        H541   1.081       .  S
C537        C538   1.410       .  A
C538       Br539   1.923       .  S
C543        C544   1.406   1_554  A
C543        C548   1.400       .  A
C543        H550   1.087       .  S
C544        C545   1.410       .  A
C545        C546   1.402   1_556  A
C545       Br552   1.920       .  S
C546        C547   1.410       .  A
C546        H551   1.085       .  S
C547        C548   1.415       .  A
C548       Br549   1.921       .  S
C553        C554   1.405       .  A
C553        C558   1.400       .  A
C553        H560   1.084       .  S
C554        C555   1.414       .  A
C555        C556   1.398       .  A
C555       Br562   1.921       .  S
C556        C557   1.403       .  A
C556        H561   1.083       .  S
C557        C558   1.414       .  A
C558       Br559   1.923       .  S
C563        C564   1.407       .  A
C563        C568   1.399       .  A
C563        H570   1.080       .  S
C564        C565   1.414       .  A
C565        C566   1.404       .  A
C565       Br572   1.920       .  S
C566        C567   1.406       .  A
C566        H571   1.080       .  S
C567        C568   1.412       .  A
C568       Br569   1.922       .  S
C573        C574   1.406       .  A
C573        C578   1.402   1_556  A
C573        H580   1.079       .  S
C574        C575   1.418   1_556  A
C575        C576   1.402       .  A
C575       Br582   1.922       .  S
C576        C577   1.402       .  A
C576        H581   1.079       .  S
C577        C578   1.414       .  A
C578       Br579   1.922       .  S
C583        C584   1.406       .  A
C583        C588   1.396       .  A
C583        H590   1.084       .  S
C584        C585   1.415       .  A
C585        C586   1.402       .  A
C585       Br592   1.921       .  S
C586        C587   1.407       .  A
C586        H591   1.085       .  S
C587        C588   1.414       .  A
C588       Br589   1.923       .  S
C593        C594   1.406       .  A
C593        C598   1.399       .  A
C593        H600   1.085       .  S
C594        C595   1.412       .  A
C595        C596   1.396       .  A
C595       Br602   1.921       .  S
C596        C597   1.401       .  A
C596        H601   1.084       .  S
C597        C598   1.411       .  A
C598       Br599   1.923       .  S
C603        C604   1.406       .  A
C603        C608   1.394       .  A
C603        H610   1.082       .  S
C604        C605   1.414       .  A
C605        C606   1.401       .  A
C605       Br612   1.922       .  S
C606        C607   1.406       .  A
C606        H611   1.083       .  S
C607        C608   1.411       .  A
C608       Br609   1.922       .  S
C613        C614   1.405       .  A
C613        C618   1.399       .  A
C613        H620   1.084       .  S
C614        C615   1.412   1_545  A
C615        C616   1.397       .  A
C615       Br622   1.922       .  S
C616        C617   1.404   1_565  A
C616        H621   1.082       .  S
C617        C618   1.412       .  A
C618       Br619   1.922       .  S
C623        C624   1.404       .  A
C623        C628   1.398       .  A
C623        H630   1.084       .  S
C624        C625   1.413       .  A
C625        C626   1.400       .  A
C625       Br632   1.921       .  S
C626        C627   1.406       .  A
C626        H631   1.084       .  S
C627        C628   1.415       .  A
C628       Br629   1.922       .  S
C633        C634   1.410       .  A
C633        C638   1.400       .  A
C633        H640   1.088   1_545  S
C634        C635   1.412       .  A
C635        C636   1.396       .  A
C635       Br642   1.921   1_554  S
C636        C637   1.407       .  A
C636        H641   1.087       .  S
C637        C638   1.411       .  A
C638       Br639   1.921   1_545  S
C643        C644   1.405       .  A
C643        C648   1.396       .  A
C643        H650   1.085       .  S
C644        C645   1.413       .  A
C645        C646   1.398       .  A
C645       Br652   1.921       .  S
C646        C647   1.405       .  A
C646        H651   1.086       .  S
C647        C648   1.413       .  A
C648       Br649   1.922       .  S
C653        C654   1.407       .  A
C653        C658   1.395       .  A
C653        H660   1.084       .  S
C654        C655   1.411       .  A
C655        C656   1.400       .  A
C655       Br662   1.920   1_545  S
C656        C657   1.409   1_554  A
C656        H661   1.084   1_545  S
C657        C658   1.411   1_556  A
C658       Br659   1.922   1_554  S
C663        C664   1.404       .  A
C663        C668   1.398       .  A
C663        H670   1.085       .  S
C664        C665   1.412       .  A
C665        C666   1.397       .  A
C665       Br672   1.922       .  S
C666        C667   1.405       .  A
C666        H671   1.086       .  S
C667        C668   1.414       .  A
C668       Br669   1.922       .  S
C673        C674   1.406       .  A
C673        C678   1.402       .  A
C673        H680   1.083       .  S
C674        C675   1.410       .  A
C675        C676   1.395       .  A
C675       Br682   1.922       .  S
C676        C677   1.406       .  A
C676        H681   1.083       .  S
C677        C678   1.415       .  A
C678       Br679   1.920       .  S
C683        C684   1.403       .  A
C683        C688   1.398       .  A
C683        H690   1.086       .  S
C684        C685   1.412       .  A
C685        C686   1.404       .  A
C685       Br692   1.918       .  S
C686        C687   1.404       .  A
C686        H691   1.085       .  S
C687        C688   1.411       .  A
C688       Br689   1.922       .  S
C693        C694   1.404       .  A
C693        C698   1.395       .  A
C693        H700   1.084       .  S
C694        C695   1.414       .  A
C695        C696   1.397       .  A
C695       Br702   1.922       .  S
C696        C697   1.404       .  A
C696        H701   1.085       .  S
C697        C698   1.412       .  A
C698       Br699   1.922       .  S
C703        C704   1.408       .  A
C703        C708   1.400       .  A
C703        H710   1.080       .  S
C704        C705   1.416       .  A
C705        C706   1.399       .  A
C705       Br712   1.922       .  S
C706        C707   1.405       .  A
C706        H711   1.081       .  S
C707        C708   1.411       .  A
C708       Br709   1.921       .  S
C713        C714   1.406       .  A
C713        C718   1.397       .  A
C713        H720   1.084       .  S
C714        C715   1.417   1_545  A
C715        C716   1.401       .  A
C715       Br722   1.922       .  S
C716        C717   1.403   1_565  A
C716        H721   1.084       .  S
C717        C718   1.411       .  A
C718       Br719   1.922       .  S
C723        C724   1.403       .  A
C723        C728   1.398       .  A
C723        H730   1.083       .  S
C724        C725   1.412       .  A
C725        C726   1.399       .  A
C725       Br732   1.922       .  S
C726        C727   1.404       .  A
C726        H731   1.083       .  S
C727        C728   1.414       .  A
C728       Br729   1.922       .  S
C733        C734   1.406       .  A
C733        C738   1.400       .  A
C733        H740   1.078       .  S
C734        C735   1.414       .  A
C735        C736   1.401       .  A
C735       Br742   1.923       .  S
C736        C737   1.407       .  A
C736        H741   1.081       .  S
C737        C738   1.413       .  A
C738       Br739   1.921       .  S
C743        C744   1.404       .  A
C743        C748   1.399       .  A
C743        H750   1.083       .  S
C744        C745   1.419       .  A
C745        C746   1.401       .  A
C745       Br752   1.922       .  S
C746        C747   1.401       .  A
C746        H751   1.083       .  S
C747        C748   1.414       .  A
C748       Br749   1.923   1_545  S
C753        C754   1.407       .  A
C753        C758   1.401       .  A
C753        H760   1.085       .  S
C754        C755   1.414       .  A
C755        C756   1.396       .  A
C755       Br762   1.922       .  S
C756        C757   1.402       .  A
C756        H761   1.083       .  S
C757        C758   1.412       .  A
C758       Br759   1.922       .  S
C763        C764   1.406       .  A
C763        C768   1.393       .  A
C763        H770   1.085       .  S
C764        C765   1.417       .  A
C765        C766   1.405       .  A
C765       Br772   1.920       .  S
C766        C767   1.404       .  A
C766        H771   1.085       .  S
C767        C768   1.409       .  A
C768       Br769   1.923       .  S
C773        C774   1.408       .  A
C773        C778   1.400       .  A
C773        H780   1.087       .  S
C774        C775   1.412       .  A
C775        C776   1.398       .  A
C775       Br782   1.922   1_545  S
C776        C777   1.408       .  A
C776        H781   1.088   1_545  S
C777        C778   1.412       .  A
C778       Br779   1.920       .  S
C783        C784   1.404       .  A
C783        C788   1.397       .  A
C783        H790   1.084       .  S
C784        C785   1.411       .  A
C785        C786   1.395       .  A
C785       Br792   1.922       .  S
C786        C787   1.405       .  A
C786        H791   1.085       .  S
C787        C788   1.416       .  A
C788       Br789   1.923       .  S
