geometry optimzed in LAMMPS
_audit_creation_date              2020-11-30 
_audit_creation_method            'lammps2cif' 
_symmetry_space_group_name_H-M    'P1' 
_symmetry_Int_Tables_number       1 
_symmetry_cell_setting            triclinic 
loop_ 
_symmetry_equiv_pos_as_xyz 
  x,y,z 
_cell_length_a                    38.83110317 
_cell_length_b                    38.750932661351726 
_cell_length_c                    38.70453696774562 
_cell_angle_alpha                 89.93468992806973 
_cell_angle_beta                  89.82838959941782 
_cell_angle_gamma                 90.14401492798852 
loop_ 
_atom_site_label 
_atom_site_type_symbol 
_atom_site_fract_x 
_atom_site_fract_y 
_atom_site_fract_z 
_atom_site_charge 
O1          O  0.45587318  0.54117186  0.96107173    -0.73200
O2          O  0.53275388  0.47167941  0.96695449    -0.74200
O3          O  0.45997580  0.46779472  0.95844401    -0.62800
O4          O  0.52847303  0.54442863  0.96926032    -0.71300
O5          O  0.52191405  0.54227939  0.02630661    -0.70800
O6          O  0.45289581  0.46576825  0.01543893    -0.62100
O7          O  0.52556179  0.46876503  0.02385496    -0.74600
O8          O  0.44905853  0.53842945  0.01803994    -0.73400
Cu9        Cu  0.49445056  0.50635106  0.96192573     1.04600
Cu10       Cu  0.48714696  0.50375061  0.02292422     1.04300
C11         C  0.44040996  0.55060855  0.98866704     0.93000
C12         C  0.54121953  0.45937384  0.99636008     0.92100
C13         C  0.44559388  0.45490443  0.98521533     0.84200
C14         C  0.53615277  0.55515611  0.99941899     0.90500
O15         O  0.46471017  0.01161279  0.53583202    -0.73200
O16         O  0.53506856  0.02247125  0.45986891    -0.74200
O17         O  0.46320897  0.00909859  0.46282290    -0.62800
O18         O  0.53678337  0.02529874  0.53374225    -0.71300
O19         O  0.54701728  0.96895114  0.53613469    -0.70800
O20         O  0.47444843  0.95289858  0.46360212    -0.62100
O21         O  0.54681825  0.96647639  0.46306573    -0.74600
O22         O  0.47487639  0.95521603  0.53724708    -0.73400
Cu23       Cu  0.49962575  0.01909369  0.49801553     1.04600
Cu24       Cu  0.51113717  0.95888824  0.50007169     1.04300
C25         C  0.45851947  0.98163094  0.54813212     0.93000
C26         C  0.55214222  0.99618492  0.44975009     0.92100
C27         C  0.45731912  0.97854612  0.45205572     0.84200
C28         C  0.55333718  0.99970717  0.54615481     0.90500
O29         O  0.02375349  0.53586334  0.46350620    -0.73200
O30         O  0.03468620  0.46475785  0.53758704    -0.74200
O31         O  0.03004172  0.46305709  0.46462126    -0.62800
O32         O  0.02823421  0.53765172  0.53633267    -0.71300
O33         O  0.97176757  0.53020757  0.54255280    -0.70800
O34         O  0.97286564  0.46013358  0.46635703    -0.62100
O35         O  0.97788015  0.45746567  0.53933117    -0.74600
O36         O  0.96682652  0.53288602  0.46932211    -0.73400
Cu37       Cu  0.03119152  0.50049915  0.50037461     1.04600
Cu38       Cu  0.97029557  0.49499680  0.50452569     1.04300
C39         C  0.99362649  0.54582707  0.45513357     0.93000
C40         C  0.00803338  0.44967455  0.54973839     0.92100
C41         C  0.00168503  0.45026094  0.45395105     0.84200
C42         C  0.99977035  0.54529272  0.55098788     0.90500
N43         N  0.33896289  0.26375385  0.98545573    -0.27600
N44         N  0.37180807  0.27205509  0.98193832    -0.35400
C45         C  0.39057188  0.24283452  0.98054812     0.00700
C46         C  0.36818610  0.21497828  0.98275128     0.06800
C47         C  0.33585359  0.22933112  0.98643937    -0.06300
H48         H  0.41825732  0.24193176  0.97753519     0.07400
H49         H  0.31168110  0.21577031  0.98973186     0.08600
Cu50       Cu  0.38818787  0.32302230  0.97892339     0.44200
Cu51       Cu  0.29902938  0.29868494  0.98830637     0.42000
Cu52       Cu  0.31866573  0.38802267  0.98621610     0.43900
N53         N  0.39566426  0.37612401  0.97907044    -0.35000
N54         N  0.37076085  0.39924935  0.98207344    -0.29200
C55         C  0.38484485  0.43092117  0.98372076    -0.05300
C56         C  0.42008286  0.42752903  0.98129157     0.06900
C57         C  0.42620399  0.39260087  0.97848145     0.00700
H58         H  0.37050475  0.45455869  0.98731206     0.08300
H59         H  0.45100855  0.37998583  0.97741138     0.07400
N60         N  0.26889584  0.36968251  0.99278662    -0.36400
N61         N  0.26188632  0.33635320  0.99330904    -0.28600
C62         C  0.22794135  0.33185129  0.99818110    -0.03800
C63         C  0.21271164  0.36395334  0.00152535     0.04800
C64         C  0.23946497  0.38741459  0.99744208     0.02900
H65         H  0.21529310  0.30695977  0.99851768     0.08000
H66         H  0.23770077  0.41525949  0.99797744     0.06800
N67         N  0.25264429  0.66273255  0.01119991    -0.27600
N68         N  0.25987343  0.62959340  0.00767587    -0.35400
C69         C  0.23017488  0.61146089  0.00780539     0.00700
C70         C  0.20301733  0.63434307  0.01173736     0.06800
C71         C  0.21837660  0.66655558  0.01365747    -0.06300
H72         H  0.22843796  0.58394205  0.00344634     0.07400
H73         H  0.20546354  0.69119824  0.01542643     0.08600
Cu74       Cu  0.30982535  0.61143086  0.00009540     0.44200
Cu75       Cu  0.28871866  0.70224695  0.00910767     0.42000
Cu76       Cu  0.37538080  0.67856173  0.98870833     0.43900
N77         N  0.36206968  0.60165648  0.99221154    -0.35000
N78         N  0.38544809  0.62606984  0.98706163    -0.29200
C79         C  0.41661391  0.61138415  0.98355982    -0.05300
C80         C  0.41272403  0.57614239  0.98681081     0.06900
C81         C  0.37794790  0.57078235  0.99254703     0.00700
H82         H  0.44052526  0.62546444  0.98048346     0.08300
H83         H  0.36523991  0.54635740  0.99734616     0.07400
N84         N  0.36011853  0.72931316  0.99550830    -0.36400
N85         N  0.32817445  0.73798466  0.00336678    -0.28600
C86         C  0.32647398  0.77243704  0.00699798    -0.03800
C87         C  0.35889656  0.78621823  0.00088031     0.04800
C88         C  0.37965145  0.75801265  0.99395823     0.02900
H89         H  0.30332653  0.78644754  0.01364281     0.08000
H90         H  0.40709948  0.75813254  0.98912835     0.06800
N91         N  0.27034838  0.96271715  0.66130373    -0.27600
N92         N  0.27812741  0.96637759  0.62825108    -0.35400
C93         C  0.24884725  0.97184762  0.61042234     0.00700
C94         C  0.22133980  0.97149861  0.63346683     0.06800
C95         C  0.23615796  0.96573985  0.66543993    -0.06300
H96         H  0.24794702  0.97769643  0.58310889     0.07400
H97         H  0.22314779  0.96519700  0.69019948     0.08600
Cu98       Cu  0.32891142  0.96769562  0.61064293     0.44200
Cu99       Cu  0.30656327  0.95907088  0.70015560     0.42000
Cu100      Cu  0.39552515  0.97267777  0.67803584     0.43900
N101        N  0.38162887  0.97197988  0.60100848    -0.35000
N102        N  0.40553386  0.97399190  0.62527902    -0.29200
C103        C  0.43663170  0.97735974  0.61014835    -0.05300
C104        C  0.43202021  0.97746494  0.57480980     0.06900
C105        C  0.39697239  0.97408436  0.56983312     0.00700
H106        H  0.46072441  0.97992483  0.62388750     0.08300
H107        H  0.38356092  0.97350786  0.54537891     0.07400
N108        N  0.37789691  0.96985115  0.72866843    -0.36400
N109        N  0.34516655  0.96440304  0.73641292    -0.28600
C110        C  0.34108967  0.96600868  0.77080557    -0.03800
C111        C  0.37279320  0.97249425  0.78562975     0.04800
C112        C  0.39561020  0.97493551  0.75812251     0.02900
H113        H  0.31657806  0.96379588  0.78401350     0.08000
H114        H  0.42265558  0.98158284  0.75926557     0.06800
O115        O  0.41554693  0.05178079  0.99610684    -0.73200
O116        O  0.41366677  0.94760842  0.00338784    -0.74200
O117        O  0.41476463  0.99598154  0.94800855    -0.62800
O118        O  0.41477453  0.00296872  0.05197425    -0.71300
O119        O  0.35770878  0.00600720  0.05185021    -0.70800
O120        O  0.35766364  0.99565743  0.94921453    -0.62100
O121        O  0.35656771  0.94967589  0.00590432    -0.74600
O122        O  0.35844857  0.05174125  0.99495588    -0.73400
Cu123      Cu  0.41681141  0.99960030  0.99994224     1.04600
Cu124      Cu  0.35572431  0.00080537  0.00052338     1.04300
C125        C  0.38701306  0.06804397  0.99369608     0.93000
C126        C  0.38449392  0.93241675  0.00601014     0.92100
C127        C  0.38589865  0.99482644  0.93225244     0.84200
C128        C  0.38618303  0.00563671  0.06823303     0.90500
N129        N  0.34387474  0.99341132  0.26590420    -0.27600
N130        N  0.37682247  0.98895032  0.27296545    -0.35400
C131        C  0.39502366  0.99091654  0.24331255     0.00700
C132        C  0.37224441  0.99661598  0.21631844     0.06800
C133        C  0.34014891  0.99831185  0.23179880    -0.06300
H134        H  0.42276103  0.98896000  0.24171142     0.07400
H135        H  0.31571993  0.00253955  0.21912549     0.08600
Cu136      Cu  0.39430268  0.98080215  0.32306305     0.44200
Cu137      Cu  0.30515712  0.99301895  0.30261751     0.42000
Cu138      Cu  0.32709577  0.98053216  0.39135456     0.43900
N139        N  0.40383395  0.97519102  0.37565782    -0.35000
N140        N  0.37987562  0.97538196  0.40011374    -0.29200
C141        C  0.39540329  0.97450841  0.43116250    -0.05300
C142        C  0.43059816  0.97320402  0.42597989     0.06900
C143        C  0.43507484  0.97398112  0.39059282     0.00700
H144        H  0.38211571  0.97641691  0.45569415     0.08300
H145        H  0.45927673  0.97563872  0.37675371     0.07400
N146        N  0.27670172  0.98927000  0.37495345    -0.36400
N147        N  0.26914320  0.99373997  0.34201501    -0.28600
C148        C  0.23517902  0.99916067  0.33882604    -0.03800
C149        C  0.22033540  0.99877900  0.37140373     0.04800
C150        C  0.24746450  0.99186007  0.39370468     0.02900
H151        H  0.22223843  0.00240545  0.31434913     0.08000
H152        H  0.24607551  0.98918622  0.42149689     0.06800
N153        N  0.73121705  0.35105490  0.98147591    -0.27600
N154        N  0.72439024  0.38395347  0.98700865    -0.35400
C155        C  0.75449161  0.40113145  0.99053593     0.00700
C156        C  0.78131212  0.37765091  0.98694743     0.06800
C157        C  0.76536840  0.34626757  0.98135348    -0.06300
H158        H  0.75661334  0.42821602  0.99693365     0.07400
H159        H  0.77768949  0.32141163  0.97858883     0.08600
Cu160      Cu  0.67364690  0.40139025  0.99187368     0.44200
Cu161      Cu  0.69459483  0.31283255  0.97857450     0.42000
Cu162      Cu  0.60765847  0.33160054  0.00006405     0.43900
N163        N  0.62045410  0.40924144  0.99625973    -0.35000
N164        N  0.59723638  0.38441002  0.00045239    -0.29200
C165        C  0.56567970  0.39867244  0.00212554    -0.05300
C166        C  0.56910503  0.43395671  0.99851247     0.06900
C167        C  0.60404359  0.43981946  0.99467558     0.00700
H168        H  0.54188492  0.38426471  0.00449821     0.08300
H169        H  0.61660151  0.46445962  0.99065380     0.07400
N170        N  0.62524852  0.28139541  0.99229996    -0.36400
N171        N  0.65752501  0.27522723  0.98353722    -0.28600
C172        C  0.66239142  0.24110438  0.98101145    -0.03800
C173        C  0.63163909  0.22459874  0.98829039     0.04800
C174        C  0.60853533  0.25098291  0.99551974     0.02900
H175        H  0.68686404  0.22913066  0.97517048     0.08000
H176        H  0.58204577  0.24829279  0.00383450     0.06800
N177        N  0.02028731  0.26284825  0.66440158    -0.27600
N178        N  0.01677620  0.27041852  0.63130923    -0.35400
C179        C  0.01229983  0.24098782  0.61336512     0.00700
C180        C  0.01237848  0.21371780  0.63649038     0.06800
C181        C  0.01791344  0.22852026  0.66850603    -0.06300
H182        H  0.00828443  0.23963745  0.58575720     0.07400
H183        H  0.01977848  0.21534389  0.69308459     0.08600
Cu184      Cu  0.01600598  0.32074919  0.61328539     0.44200
Cu185      Cu  0.02551629  0.29948918  0.70293636     0.42000
Cu186      Cu  0.02258460  0.38891836  0.67915148     0.43900
N187        N  0.01513647  0.37321276  0.60295453    -0.35000
N188        N  0.01843050  0.39767782  0.62658292    -0.29200
C189        C  0.01685442  0.42866488  0.61105849    -0.05300
C190        C  0.01210966  0.42331326  0.57621962     0.06900
C191        C  0.01102558  0.38803779  0.57181795     0.00700
H192        H  0.01832696  0.45320853  0.62427851     0.08300
H193        H  0.00745910  0.37415079  0.54785285     0.07400
N194        N  0.02218818  0.37234027  0.72997030    -0.36400
N195        N  0.02357666  0.33935086  0.73844991    -0.28600
C196        C  0.02034942  0.33633340  0.77284010    -0.03800
C197        C  0.01688523  0.36898853  0.78686358     0.04800
C198        C  0.01799343  0.39125978  0.75884095     0.02900
H199        H  0.01950718  0.31200752  0.78656880     0.08000
H200        H  0.01426742  0.41890989  0.75912542     0.06800
O201        O  0.99636234  0.41323555  0.05417991    -0.73200
O202        O  0.99948004  0.41393103  0.94971828    -0.74200
O203        O  0.94593879  0.41439536  0.00054343    -0.62800
O204        O  0.04997188  0.41278737  0.00327167    -0.71300
O205        O  0.04832839  0.35558024  0.00324906    -0.70800
O206        O  0.94568832  0.35722141  0.00018408    -0.62100
O207        O  0.99839863  0.35671118  0.95023111    -0.74600
O208        O  0.99524864  0.35609513  0.05283438    -0.73400
Cu209      Cu  0.99802273  0.41571121  0.00192090     1.04600
Cu210      Cu  0.99694024  0.35454812  0.00157841     1.04300
C211        C  0.99503261  0.38423469  0.06994039     0.93000
C212        C  0.99891444  0.38513705  0.93359365     0.92100
C213        C  0.92941945  0.38578041  0.00031913     0.84200
C214        C  0.06548740  0.38372324  0.00378577     0.90500
N215        N  0.01084656  0.26166233  0.34291106    -0.27600
N216        N  0.01288245  0.27019012  0.37586083    -0.35400
C217        C  0.01220114  0.24125313  0.39516380     0.00700
C218        C  0.00969367  0.21319785  0.37312702     0.06800
C219        C  0.00867829  0.22720491  0.34025863    -0.06300
H220        H  0.01201752  0.24082436  0.42311309     0.07400
H221        H  0.00588607  0.21336625  0.31616236     0.08600
Cu222      Cu  0.01304395  0.32114821  0.39194018     0.44200
Cu223      Cu  0.00832012  0.29730717  0.30327467     0.42000
Cu224      Cu  0.99250259  0.38604710  0.32522436     0.43900
N225        N  0.00694862  0.37346249  0.40109555    -0.35000
N226        N  0.99808053  0.39653957  0.37748865    -0.29200
C227        C  0.99474911  0.42752287  0.39276424    -0.05300
C228        C  0.00223139  0.42365204  0.42736004     0.06900
C229        C  0.00989318  0.38924359  0.43185761     0.00700
H230        H  0.98779725  0.45112018  0.37957353     0.08300
H231        H  0.01657551  0.37647344  0.45578140     0.07400
N232        N  0.99423626  0.36831480  0.27469832    -0.36400
N233        N  0.00099834  0.33580642  0.26708250    -0.28600
C234        C  0.00104569  0.33196330  0.23266626    -0.03800
C235        C  0.99327883  0.36340007  0.21766988     0.04800
C236        C  0.98966246  0.38607837  0.24510960     0.02900
H237        H  0.00657563  0.30795180  0.21959007     0.08000
H238        H  0.98378940  0.41331538  0.24369862     0.06800
N239        N  0.99221870  0.73585114  0.34646682    -0.27600
N240        N  0.99018853  0.72721851  0.37942140    -0.35400
C241        C  0.99183662  0.75604483  0.39875812     0.00700
C242        C  0.99494442  0.78405910  0.37668131     0.06800
C243        C  0.99524393  0.77020421  0.34380944    -0.06300
H244        H  0.99212571  0.75639165  0.42670385     0.07400
H245        H  0.99803065  0.78406070  0.31967430     0.08600
Cu246      Cu  0.98762067  0.67627333  0.39536143     0.44200
Cu247      Cu  0.99235474  0.70086109  0.30647126     0.42000
Cu248      Cu  0.99144460  0.61056333  0.32652217     0.43900
N249        N  0.98807233  0.62346889  0.40365045    -0.35000
N250        N  0.99006539  0.59987057  0.37900342    -0.29200
C251        C  0.99145424  0.56842771  0.39364921    -0.05300
C252        C  0.98992374  0.57258614  0.42898546     0.06900
C253        C  0.98798191  0.60763383  0.43456400     0.00700
H254        H  0.99396342  0.54442918  0.37961594     0.08300
H255        H  0.98751883  0.62074503  0.45922744     0.07400
N256        N  0.99031441  0.62939443  0.27641509    -0.36400
N257        N  0.99064206  0.66276464  0.26946306    -0.28600
C258        C  0.98867318  0.66735947  0.23519389    -0.03800
C259        C  0.98648403  0.63533307  0.21968273     0.04800
C260        C  0.98812782  0.61174704  0.24654491     0.02900
H261        H  0.98900345  0.69227294  0.22256837     0.08000
H262        H  0.98715422  0.58391655  0.24457717     0.06800
N263        N  0.74183978  0.00968484  0.33862674    -0.27600
N264        N  0.73277009  0.00075362  0.37033352    -0.35400
C265        C  0.76138016  0.99370459  0.38867406     0.00700
C266        C  0.78971822  0.99780850  0.36718195     0.06800
C267        C  0.77629641  0.00830074  0.33579427    -0.06300
H268        H  0.76152183  0.98573999  0.41546406     0.07400
H269        H  0.79054891  0.01471184  0.31258813     0.08600
Cu270      Cu  0.68153725  0.99828657  0.38600970     0.44200
Cu271      Cu  0.70690856  0.02215651  0.30024288     0.42000
Cu272      Cu  0.61601017  0.01975062  0.32132518     0.43900
N273        N  0.62890872  0.00036305  0.39600893    -0.35000
N274        N  0.60533071  0.00987353  0.37327291    -0.29200
C275        C  0.57431451  0.01037034  0.38901165    -0.05300
C276        C  0.57865170  0.00013690  0.42295738     0.06900
C277        C  0.61342743  0.99382119  0.42647219     0.00700
H278        H  0.55033468  0.01691873  0.37647521     0.08300
H279        H  0.62663836  0.98567936  0.44965024     0.07400
N280        N  0.63489846  0.02529605  0.27111401    -0.36400
N281        N  0.66815965  0.02712358  0.26391177    -0.28600
C282        C  0.67239851  0.02906382  0.22950991    -0.03800
C283        C  0.64032055  0.02849799  0.21408618     0.04800
C284        C  0.61709990  0.02569975  0.24125086     0.02900
H285        H  0.69715166  0.02897608  0.21660226     0.08000
H286        H  0.58941055  0.02331416  0.23939079     0.06800
O287        O  0.00826339  0.94686617  0.36489736    -0.73200
O288        O  0.00203942  0.04947651  0.36371941    -0.74200
O289        O  0.05643130  0.00139289  0.36453220    -0.62800
O290        O  0.95404516  0.99489913  0.36338081    -0.71300
O291        O  0.95188614  0.99737095  0.42051693    -0.70800
O292        O  0.05669287  0.99950813  0.42180894    -0.62100
O293        O  0.00341478  0.05053641  0.42104304    -0.74600
O294        O  0.00508532  0.94673818  0.42217283    -0.73400
Cu295      Cu  0.00523949  0.99814811  0.36227142     1.04600
Cu296      Cu  0.00425518  0.99858621  0.42352897     1.04300
C297        C  0.00735148  0.93053460  0.39354389     0.93000
C298        C  0.00185060  0.06627691  0.39206251     0.92100
C299        C  0.07293712  0.00100492  0.39298520     0.84200
C300        C  0.93653490  0.99534577  0.39133648     0.90500
N301        N  0.65192731  0.74142413  0.98796087    -0.27600
N302        N  0.61918632  0.73461326  0.99463783    -0.35400
C303        C  0.60218977  0.76461500  0.99884918     0.00700
C304        C  0.62546818  0.79147873  0.99465955     0.06800
C305        C  0.65669702  0.77575007  0.98802145    -0.06300
H306        H  0.57524205  0.76665127  0.00570381     0.07400
H307        H  0.68130862  0.78837604  0.98414732     0.08600
Cu308      Cu  0.60023233  0.68459038  0.99967678     0.44200
Cu309      Cu  0.68965262  0.70423372  0.98157083     0.42000
Cu310      Cu  0.66542827  0.61620197  0.99303189     0.43900
N311        N  0.58948078  0.63200183  0.00208502    -0.35000
N312        N  0.61314091  0.60760098  0.99934064    -0.29200
C313        C  0.59760898  0.57659908  0.99955133    -0.05300
C314        C  0.56266769  0.58165586  0.00299087     0.06900
C315        C  0.55821510  0.61699254  0.00426707     0.00700
H316        H  0.61072622  0.55221875  0.99621635     0.08300
H317        H  0.53404521  0.63079246  0.00515972     0.07400
N318        N  0.71615478  0.63151590  0.98672416    -0.36400
N319        N  0.72487917  0.66417558  0.98220944    -0.28600
C320        C  0.75935715  0.66675965  0.98195783    -0.03800
C321        C  0.77313193  0.63412067  0.98631565     0.04800
C322        C  0.74492694  0.61235897  0.98936331     0.02900
H323        H  0.77340101  0.69086939  0.98041747     0.08000
H324        H  0.74523263  0.58506566  0.99528774     0.06800
N325        N  0.98851645  0.65894083  0.73850481    -0.27600
N326        N  0.98880045  0.62571519  0.73098809    -0.35400
C327        C  0.98815548  0.60744026  0.76061871     0.00700
C328        C  0.98761822  0.63046838  0.78801260     0.06800
C329        C  0.98757653  0.66281795  0.77291179    -0.06300
H330        H  0.98752453  0.57956755  0.76200174     0.07400
H331        H  0.98727711  0.68746332  0.78601471     0.08600
Cu332      Cu  0.99048120  0.60804622  0.68045047     0.44200
Cu333      Cu  0.99104520  0.69771832  0.70207834     0.42000
Cu334      Cu  0.00536109  0.67489352  0.61364490     0.43900
N335        N  0.99518871  0.59842277  0.62790711    -0.35000
N336        N  0.00203301  0.62218046  0.60420049    -0.29200
C337        C  0.00500239  0.60674253  0.57322941    -0.05300
C338        C  0.99923891  0.57188384  0.57767764     0.06900
C339        C  0.99299009  0.56739696  0.61249066     0.00700
H340        H  0.01034116  0.62002009  0.54919184     0.08300
H341        H  0.98780637  0.54333700  0.62575484     0.07400
N342        N  0.00449747  0.72570461  0.63074620    -0.36400
N343        N  0.99906912  0.73358958  0.66350359    -0.28600
C344        C  0.00053161  0.76794138  0.66734041    -0.03800
C345        C  0.00744968  0.78258085  0.63551768     0.04800
C346        C  0.00933721  0.75511266  0.61268946     0.02900
H347        H  0.99666774  0.78128166  0.69158008     0.08000
H348        H  0.01432794  0.75637705  0.58521009     0.06800
N349        N  0.74114357  0.01328526  0.65921692    -0.27600
N350        N  0.73374310  0.01328850  0.62592623    -0.35400
C351        C  0.76340122  0.01156860  0.60771636     0.00700
C352        C  0.79072069  0.01043745  0.63080578     0.06800
C353        C  0.77543902  0.01138387  0.66315370    -0.06300
H354        H  0.76483954  0.00974429  0.57986153     0.07400
H355        H  0.78833083  0.01010241  0.68785415     0.08600
Cu356      Cu  0.68293350  0.01293847  0.60836099     0.44200
Cu357      Cu  0.70433371  0.01367295  0.69805280     0.42000
Cu358      Cu  0.61465762  0.01428385  0.67565021     0.43900
N359        N  0.63005340  0.01062593  0.59870159    -0.35000
N360        N  0.60572250  0.01180122  0.62276459    -0.29200
C361        C  0.57471910  0.00891562  0.60755617    -0.05300
C362        C  0.57977194  0.00565675  0.57241579     0.06900
C363        C  0.61502777  0.00668545  0.56762232     0.00700
H364        H  0.55036848  0.00821972  0.62120616     0.08300
H365        H  0.62878892  0.00424119  0.54340678     0.07400
N366        N  0.63182139  0.01193591  0.72639442    -0.36400
N367        N  0.66492828  0.01157939  0.73416717    -0.28600
C368        C  0.66842410  0.00840036  0.76849793    -0.03800
C369        C  0.63599546  0.00611941  0.78323077     0.04800
C370        C  0.61329984  0.00901140  0.75579268     0.02900
H371        H  0.69290804  0.00782996  0.78173895     0.08000
H372        H  0.58546932  0.00820681  0.75702650     0.06800
O373        O  0.64583609  0.95530834  0.00229280    -0.73200
O374        O  0.64935515  0.05812741  0.99463947    -0.74200
O375        O  0.64953640  0.01090683  0.04960813    -0.62800
O376        O  0.64617898  0.00293434  0.94699644    -0.71300
O377        O  0.58919813  0.00678325  0.94769240    -0.70800
O378        O  0.59240561  0.01071955  0.05210744    -0.62100
O379        O  0.59243711  0.06056873  0.99790884    -0.74600
O380        O  0.58873875  0.95662215  0.00192468    -0.73400
Cu381      Cu  0.64961171  0.00668182  0.99827267     1.04600
Cu382      Cu  0.58859909  0.00868409  0.99995333     1.04300
C383        C  0.61688152  0.93961906  0.00321230     0.93000
C384        C  0.62166229  0.07575453  0.99605670     0.92100
C385        C  0.62169149  0.01226545  0.06711446     0.84200
C386        C  0.61752473  0.00414811  0.93096393     0.90500
O387        O  0.00830073  0.05032202  0.58941245    -0.73200
O388        O  0.00656666  0.94616745  0.58908421    -0.74200
O389        O  0.95515046  0.99916784  0.58840995    -0.62800
O390        O  0.05957798  0.99709947  0.59018475    -0.71300
O391        O  0.05786299  0.99866457  0.64736436    -0.70800
O392        O  0.95479212  0.99705661  0.64566414    -0.62100
O393        O  0.00737051  0.94667108  0.64639329    -0.74600
O394        O  0.00539708  0.04954086  0.64663781    -0.73400
Cu395      Cu  0.00742093  0.99825468  0.58716893     1.04600
Cu396      Cu  0.00629360  0.99803907  0.64839416     1.04300
C397        C  0.00678778  0.06631250  0.61824964     0.93000
C398        C  0.00731658  0.93007351  0.61792692     0.92100
C399        C  0.93857318  0.99787866  0.61701988     0.84200
C400        C  0.07516099  0.99740932  0.61929426     0.90500
O401        O  0.98652006  0.64489943  0.05529325    -0.73200
O402        O  0.98648107  0.64426098  0.95267366    -0.74200
O403        O  0.93572868  0.64397509  0.00408533    -0.62800
O404        O  0.03788947  0.64543479  0.00383724    -0.71300
O405        O  0.03980768  0.58827587  0.00419213    -0.70800
O406        O  0.93521364  0.58675657  0.00426119    -0.62100
O407        O  0.98740587  0.58701210  0.95214183    -0.74600
O408        O  0.98763721  0.58764547  0.05644835    -0.73400
Cu409      Cu  0.98672357  0.64645231  0.00397545     1.04600
Cu410      Cu  0.98759973  0.58523841  0.00430443     1.04300
C411        C  0.98688672  0.61662444  0.07219604     0.93000
C412        C  0.98609423  0.61584208  0.93609633     0.92100
C413        C  0.91912000  0.61557412  0.00431347     0.84200
C414        C  0.05520663  0.61753164  0.00361662     0.90500
C415        C  0.84603502  0.98162945  0.64437336    -0.09500
C416        C  0.82801679  0.00533247  0.62381084     0.06700
C417        C  0.84642715  0.02450947  0.59873839    -0.03200
C418        C  0.88229711  0.02065252  0.59572315    -0.07700
C419        C  0.90038837  0.99804749  0.61749088     0.05900
C420        C  0.88168359  0.97767005  0.64126631    -0.02700
Br421      Br  0.90319833  0.94297254  0.66930041    -0.02400
H422        H  0.83226737  0.96605897  0.66316794     0.09800
H423        H  0.89628881  0.03654395  0.57737186     0.07800
Br424      Br  0.82474582  0.05863964  0.57027660    -0.02800
C425        C  0.60263780  0.02326797  0.83566171    -0.09500
C426        C  0.62794065  0.00227296  0.82045294     0.06700
C427        C  0.64673493  0.97944376  0.84159271    -0.03200
C428        C  0.64191342  0.97982866  0.87732569    -0.07700
C429        C  0.61805802  0.00212758  0.89282752     0.05900
C430        C  0.59758186  0.02340807  0.87159744    -0.02700
Br431      Br  0.56488450  0.05547825  0.89029908    -0.02400
H432        H  0.58787848  0.04081039  0.81973456     0.09800
H433        H  0.65719134  0.96268528  0.89321635     0.07800
Br434      Br  0.67829563  0.94597014  0.82331763    -0.02800
C435        C  0.00499803  0.59516822  0.87818020    -0.09500
C436        C  0.98398011  0.61686978  0.89810869     0.06700
C437        C  0.96252503  0.64090590  0.88135989    -0.03200
C438        C  0.96356112  0.64397321  0.84549286    -0.07700
C439        C  0.98557704  0.62338815  0.82550409     0.05900
C440        C  0.00621376  0.59843226  0.84210694    -0.02700
Br441      Br  0.03915112  0.57077874  0.81766097    -0.02400
H442        H  0.02175557  0.57676843  0.89081090     0.09800
H443        H  0.94712708  0.66283715  0.83311663     0.07800
Br444      Br  0.93041719  0.66961793  0.90590235    -0.02800
C445        C  0.99076751  0.83460144  0.60175090    -0.09500
C446        C  0.01068873  0.81980760  0.62808941     0.06700
C447        C  0.03128282  0.84132147  0.64890065    -0.03200
C448        C  0.03030764  0.87700527  0.64435317    -0.07700
C449        C  0.00921316  0.89205493  0.61915678     0.05900
C450        C  0.98969824  0.87051307  0.59726717    -0.06600
Br451      Br  0.95856618  0.88867741  0.56343619    -0.02400
H452        H  0.97466191  0.81831050  0.58576093     0.09800
H453        H  0.04602204  0.89318019  0.66086267     0.07800
Br454      Br  0.06205596  0.82351272  0.68331563    -0.02800
C455        C  0.82801065  0.64795253  0.01530061    -0.09500
C456        C  0.80973634  0.62615406  0.99301683     0.06700
C457        C  0.82709561  0.59838703  0.97713908    -0.03200
C458        C  0.86254857  0.59393811  0.98260112    -0.07700
C459        C  0.88107903  0.61690973  0.00363819     0.05900
C460        C  0.86315824  0.64346095  0.02092528    -0.02700
Br461      Br  0.88494717  0.67409120  0.05326030    -0.02400
H462        H  0.81484233  0.66882149  0.02841896     0.09800
H463        H  0.87596507  0.57356922  0.96897192     0.07800
Br464      Br  0.80457281  0.56797529  0.94525971    -0.02800
C465        C  0.59223814  0.88317287  0.98471469    -0.09500
C466        C  0.61625602  0.90149158  0.00470826     0.06700
C467        C  0.64084152  0.88294439  0.02394706    -0.03200
C468        C  0.64276527  0.84708520  0.02084161    -0.07700
C469        C  0.61991801  0.82888823  0.99952580     0.05900
C470        C  0.59382678  0.84711818  0.98206377    -0.02700
Br471      Br  0.56175718  0.82460594  0.95189532    -0.02400
H472        H  0.57309628  0.89703968  0.96989730     0.09800
H473        H  0.66233231  0.83328073  0.03515732     0.07800
Br474      Br  0.67141466  0.90496451  0.05608223    -0.02800
C475        C  0.88449348  0.97581193  0.36000367    -0.09500
C476        C  0.89839096  0.99307500  0.38872415     0.06700
C477        C  0.87556562  0.00907560  0.41227653    -0.03200
C478        C  0.83999136  0.00900309  0.40568304    -0.07700
C479        C  0.82659617  0.99346238  0.37580462     0.05900
C480        C  0.84914891  0.97575117  0.35349243    -0.02700
Br481      Br  0.83319388  0.94982687  0.31438470    -0.02400
H482        H  0.90133380  0.96245639  0.34212113     0.09800
H483        H  0.82288644  0.02253283  0.42316786     0.07800
Br484      Br  0.89122204  0.03393029  0.45212746    -0.02800
C485        C  0.64570658  0.04321956  0.11730449    -0.09500
C486        C  0.62401034  0.01711348  0.10481357     0.06700
C487        C  0.60623014  0.99590463  0.12847765    -0.03200
C488        C  0.61079572  0.00080409  0.16408707    -0.07700
C489        C  0.63323650  0.02642262  0.17657328     0.05900
C490        C  0.65026442  0.04817403  0.15274493    -0.02700
Br491      Br  0.67876852  0.08613513  0.16691211    -0.02400
H492        H  0.65912281  0.06001060  0.09931328     0.09800
H493        H  0.59785656  0.98362482  0.18203875     0.07800
Br494      Br  0.57817360  0.95799745  0.11344228    -0.02800
C495        C  0.98391190  0.87425269  0.41334246    -0.09500
C496        C  0.00779591  0.89260252  0.39310435     0.06700
C497        C  0.02950061  0.87450849  0.37030017    -0.03200
C498        C  0.02563982  0.83895167  0.36650920    -0.07700
C499        C  0.00044987  0.82074623  0.38519131     0.05900
C500        C  0.97989144  0.83854493  0.40940058    -0.02700
Br501      Br  0.94342827  0.81649657  0.43476490    -0.02400
H502        H  0.96695475  0.88799927  0.43081098     0.09800
H503        H  0.04211854  0.82548944  0.34837100     0.07800
Br504      Br  0.06521111  0.89691759  0.34406997    -0.02800
C505        C  0.96327292  0.64272157  0.12510251    -0.09500
C506        C  0.98532640  0.61829727  0.11018268     0.06700
C507        C  0.00613342  0.59777021  0.13174113    -0.03200
C508        C  0.00523968  0.60278638  0.16759334    -0.07700
C509        C  0.98408011  0.62822517  0.18231890     0.05900
C510        C  0.96225837  0.64766194  0.16074279    -0.02700
Br511      Br  0.92920212  0.68013847  0.17816874    -0.02400
H512        H  0.94664900  0.65816827  0.10884671     0.09800
H513        H  0.02219277  0.58775609  0.18388348     0.07800
Br514      Br  0.03846557  0.56503876  0.11358235    -0.02800
C515        C  0.02405332  0.12353802  0.41042442    -0.09500
C516        C  0.00055781  0.10421595  0.39085691     0.06700
C517        C  0.97811012  0.12137975  0.36813147    -0.03200
C518        C  0.98084274  0.15702888  0.36374315    -0.07700
C519        C  0.00556231  0.17627001  0.38185136     0.05900
C520        C  0.02686944  0.15933241  0.40598052    -0.02700
Br521      Br  0.06269395  0.18278882  0.43071306    -0.02400
H522        H  0.04154171  0.11052427  0.42785820     0.09800
H523        H  0.96376260  0.16976407  0.34570890     0.07800
Br524      Br  0.94273312  0.09747416  0.34304354    -0.02800
C525        C  0.97596963  0.35288595  0.12209767    -0.09500
C526        C  0.99234585  0.38208580  0.10808876     0.06700
C527        C  0.00622836  0.40698991  0.13083724    -0.03200
C528        C  0.00525849  0.40108520  0.16663637    -0.07700
C529        C  0.99049142  0.37082192  0.18027977     0.05900
C530        C  0.97458369  0.34727221  0.15761196    -0.02700
Br531      Br  0.94859467  0.30794402  0.17321896    -0.02400
H532        H  0.96393155  0.33411855  0.10523464     0.09800
H533        H  0.01719399  0.41963778  0.18378821     0.07800
Br534      Br  0.02867570  0.44829862  0.11497100    -0.02800
C535        C  0.02057468  0.40756211  0.87723482    -0.09500
C536        C  0.99962892  0.38418477  0.89546469     0.06700
C537        C  0.98172386  0.35842878  0.87702437    -0.03200
C538        C  0.98696905  0.35487747  0.84154615    -0.07700
C539        C  0.00952737  0.37683925  0.82354901     0.05900
C540        C  0.02571079  0.40407976  0.84153223    -0.02700
Br541      Br  0.05770195  0.43510460  0.81979475    -0.02400
H542        H  0.03440434  0.42752966  0.89106245     0.09800
H543        H  0.97350461  0.33450184  0.82795265     0.07800
Br544      Br  0.94900843  0.32783446  0.89853071    -0.02800
C545        C  0.02726422  0.16120416  0.60265390    -0.09500
C546        C  0.00778622  0.17663105  0.62903065     0.06700
C547        C  0.98557580  0.15594797  0.64915892    -0.03200
C548        C  0.98524714  0.12022404  0.64459408    -0.07700
C549        C  0.00606994  0.10443309  0.61950306     0.05900
C550        C  0.02652116  0.12536787  0.59766474    -0.02700
Br551      Br  0.05604036  0.10649145  0.56263458    -0.02400
H552        H  0.04417499  0.17691232  0.58678134     0.09800
H553        H  0.96851461  0.10463729  0.66078773     0.07800
Br554      Br  0.95366677  0.17517259  0.68185491    -0.02800
C555        C  0.83643639  0.35731493  0.01144876    -0.09500
C556        C  0.81876824  0.38255661  0.99249470     0.06700
C557        C  0.83762729  0.41009654  0.97782214    -0.03200
C558        C  0.87353670  0.41144996  0.98172802    -0.07700
C559        C  0.89127239  0.38540308  0.99963227     0.05900
C560        C  0.87215506  0.35845096  0.01516732    -0.02700
Br561      Br  0.89277064  0.32277962  0.04276834    -0.02400
H562        H  0.82232398  0.33628046  0.02340014     0.09800
H563        H  0.88779368  0.43217767  0.96942616     0.07800
Br564      Br  0.81643463  0.44452753  0.94936313    -0.02800
C565        C  0.65341829  0.16781639  0.00737774    -0.09500
C566        C  0.62702709  0.18679624  0.99164189     0.06700
C567        C  0.59821048  0.16905240  0.97836038    -0.03200
C568        C  0.59664712  0.13294437  0.98052070    -0.07700
C569        C  0.62353439  0.11393515  0.99556519     0.05900
C570        C  0.65189432  0.13190822  0.00965956    -0.02700
Br571      Br  0.68869346  0.10956254  0.03408809    -0.02400
H572        H  0.67544007  0.18107986  0.01828801     0.09800
H573        H  0.57472834  0.11961015  0.96949569     0.07800
Br574      Br  0.56168468  0.19223028  0.95455720    -0.02800
C575        C  0.12612296  0.02509586  0.36715936    -0.09500
C576        C  0.11103354  0.00283561  0.39150684     0.06700
C577        C  0.13255929  0.98143608  0.41148841    -0.03200
C578        C  0.16826779  0.98139310  0.40549880    -0.07700
C579        C  0.18314356  0.00251128  0.37986552     0.05900
C580        C  0.16168806  0.02553895  0.36156981    -0.02700
Br581      Br  0.17908410  0.05977392  0.33004767    -0.02400
H582        H  0.11002212  0.04235030  0.35223586     0.09800
H583        H  0.18426782  0.96371059  0.41998499     0.07800
Br584      Br  0.11446546  0.94963822  0.44498917    -0.02800
C585        C  0.36047845  0.02573880  0.16051218    -0.09500
C586        C  0.37939014  0.00093420  0.17891033     0.06700
C587        C  0.40255197  0.97955145  0.16066014    -0.03200
C588        C  0.40574552  0.98284326  0.12474142    -0.07700
C589        C  0.38571143  0.00664246  0.10634068     0.05900
C590        C  0.36339697  0.02870893  0.12462541    -0.02700
Br591      Br  0.33687635  0.06385884  0.10204634    -0.02400
H592        H  0.34293248  0.04270450  0.17410022     0.09800
H593        H  0.42259536  0.96538272  0.11088738     0.07800
Br594      Br  0.42749392  0.94273203  0.18225422    -0.02800
C595        C  0.40893255  0.97124263  0.87690206    -0.09500
C596        C  0.38478573  0.99200057  0.89420411     0.06700
C597        C  0.35865261  0.00827454  0.87493304    -0.03200
C598        C  0.35582403  0.00198139  0.83957945    -0.07700
C599        C  0.37897716  0.98011192  0.82249151     0.05900
C600        C  0.40618586  0.96514141  0.84129679    -0.02700
Br601      Br  0.43825178  0.93375590  0.82049846    -0.02400
H602        H  0.42914673  0.95855985  0.89134550     0.09800
H603        H  0.33530240  0.01433300  0.82527927     0.07800
Br604      Br  0.32685899  0.04056174  0.89495564    -0.02800
C605        C  0.16760830  0.00110379  0.65144317    -0.09500
C606        C  0.18466733  0.98029869  0.62717666     0.06700
C607        C  0.16589800  0.96749131  0.59874083    -0.03200
C608        C  0.13064898  0.97487062  0.59568413    -0.07700
C609        C  0.11329808  0.99450223  0.62082568     0.05900
C610        C  0.13247559  0.00831216  0.64855554    -0.02700
Br611      Br  0.11272975  0.03793186  0.68308190    -0.02400
H612        H  0.18170399  0.01180089  0.67306083     0.09800
H613        H  0.11638451  0.96371312  0.57441432     0.07800
Br614      Br  0.18582529  0.93687550  0.56531527    -0.02800
C615        C  0.35467257  0.84285999  0.03035472    -0.09500
C616        C  0.36891243  0.82304248  0.00354416     0.06700
C617        C  0.39107439  0.83923556  0.97938901    -0.03200
C618        C  0.39786137  0.87467001  0.98204505    -0.07700
C619        C  0.38231613  0.89454484  0.00796553     0.05900
C620        C  0.36118085  0.87825625  0.03271181    -0.02700
Br621      Br  0.34095973  0.90324941  0.07046420    -0.02400
H622        H  0.33807703  0.83081503  0.04944151     0.09800
H623        H  0.41362381  0.88713694  0.96251113     0.07800
Br624      Br  0.40941331  0.81570423  0.93982446    -0.02800
C625        C  0.14602067  0.65039140  0.98844039    -0.09500
C626        C  0.16555816  0.62758599  0.00853079     0.06700
C627        C  0.14868750  0.59998146  0.02545610    -0.03200
C628        C  0.11283967  0.59614016  0.02245916    -0.07700
C629        C  0.09327105  0.61973405  0.00317777     0.05900
C630        C  0.11040755  0.64672078  0.98553809    -0.02700
Br631      Br  0.08707383  0.67892575  0.95595242    -0.02400
H632        H  0.15858314  0.67132238  0.97470567     0.09800
H633        H  0.10005515  0.57552718  0.03647106     0.07800
Br634      Br  0.17251568  0.56886455  0.05558789    -0.02800
C635        C  0.40345187  0.16470389  0.00188220    -0.09500
C636        C  0.37623992  0.17772768  0.98192007     0.06700
C637        C  0.35545656  0.15451779  0.96319346    -0.03200
C638        C  0.36019289  0.11908098  0.96695630    -0.07700
C639        C  0.38604130  0.10582832  0.98843113     0.05900
C640        C  0.40859528  0.12899043  0.00516812    -0.02700
Br641      Br  0.44485847  0.11354074  0.03493837    -0.02400
H642        H  0.41983050  0.18227846  0.01614120     0.09800
H643        H  0.34340581  0.10167399  0.95295231     0.07800
Br644      Br  0.32129106  0.16944559  0.93064063    -0.02800
C645        C  0.16096400  0.39887474  0.98692278    -0.09500
C646        C  0.17550312  0.37137973  0.00551020     0.06700
C647        C  0.15381808  0.35051729  0.02615563    -0.03200
C648        C  0.11822720  0.35553748  0.02552144    -0.07700
C649        C  0.10347597  0.38186294  0.00555938     0.05900
C650        C  0.12529955  0.40438920  0.98692449    -0.02700
Br651      Br  0.10796559  0.44129378  0.95885464    -0.02400
H652        H  0.17724868  0.41538383  0.97121981     0.09800
H653        H  0.10190536  0.33878842  0.04095750     0.07800
Br654      Br  0.17105342  0.31631662  0.05760040    -0.02800
loop_ 
_geom_bond_atom_site_label_1 
_geom_bond_atom_site_label_2 
_geom_bond_distance 
_geom_bond_site_symmetry_2 
_ccdc_geom_bond_type 
O1           Cu9   2.019       .  S
O1           C11   1.278       .  A
O2           Cu9   2.017       .  S
O2           C12   1.278       .  A
O3           Cu9   2.008       .  S
O3           C13   1.276       .  A
O4           Cu9   1.999       .  S
O4           C14   1.275       .  A
O5          Cu10   2.015       .  S
O5           C14   1.277   1_554  A
O6          Cu10   2.003       .  S
O6           C13   1.276   1_554  A
O7          Cu10   2.019       .  S
O7           C12   1.278   1_554  A
O8          Cu10   2.010       .  S
O8           C11   1.277   1_554  A
Cu9         Cu10   2.379   1_556  S
C11          C80   1.465       .  S
C12         C166   1.468       .  S
C13          C56   1.458       .  S
C14         C314   1.459   1_556  S
O15         Cu23   2.012       .  S
O15          C25   1.277   1_545  A
O16         Cu23   2.019       .  S
O16          C26   1.278   1_545  A
O17         Cu23   2.004       .  S
O17          C27   1.276   1_545  A
O18         Cu23   2.016       .  S
O18          C28   1.277   1_545  A
O19         Cu24   2.013       .  S
O19          C28   1.277       .  A
O20         Cu24   2.022       .  S
O20          C27   1.278       .  A
O21         Cu24   2.011       .  S
O21          C26   1.277       .  A
O22         Cu24   2.015       .  S
O22          C25   1.277       .  A
Cu23        Cu24   2.378   1_545  S
C25         C104   1.464       .  S
C26         C276   1.467   1_565  S
C27         C142   1.464       .  S
C28         C362   1.465   1_565  S
O29         Cu37   1.999       .  S
O29          C39   1.276   1_455  A
O30         Cu37   2.002       .  S
O30          C40   1.276       .  A
O31         Cu37   2.007       .  S
O31          C41   1.276       .  A
O32         Cu37   2.007       .  S
O32          C42   1.276   1_455  A
O33         Cu38   2.009       .  S
O33          C42   1.277       .  A
O34         Cu38   2.005       .  S
O34          C41   1.276   1_655  A
O35         Cu38   2.004       .  S
O35          C40   1.276   1_655  A
O36         Cu38   2.007       .  S
O36          C39   1.276       .  A
Cu37        Cu38   2.379   1_455  S
C39         C252   1.456       .  S
C40         C190   1.455       .  S
C41         C228   1.458       .  S
C42         C338   1.460       .  S
N43          N44   1.321       .  A
N43          C47   1.340       .  A
N43         Cu51   2.064       .  S
N44          C45   1.349       .  A
N44         Cu50   2.076       .  S
C45          C46   1.387       .  A
C45          H48   1.082       .  S
C46         C636   1.478       .  S
C46          C47   1.382       .  A
C47          H49   1.082       .  S
Cu50         N53   2.077       .  S
Cu51         N61   2.063       .  S
Cu52         N54   2.074       .  S
Cu52         N60   2.072       .  S
N53          N54   1.325       .  A
N53          C57   1.346       .  A
N54          C55   1.344       .  A
C55          C56   1.378       .  A
C55          H58   1.082       .  S
C56          C57   1.379       .  A
C57          H59   1.082       .  S
N60          N61   1.319       .  A
N60          C64   1.347       .  A
N61          C62   1.342       .  A
C62          C63   1.385   1_556  A
C62          H65   1.081       .  S
C63         C646   1.482       .  S
C63          C64   1.387   1_554  A
C64          H66   1.082       .  S
N67          N68   1.322       .  A
N67          C71   1.342       .  A
N67         Cu75   2.074       .  S
N68          C69   1.349       .  A
N68         Cu74   2.085       .  S
C69          C70   1.388       .  A
C69          H72   1.082       .  S
C70         C626   1.483       .  S
C70          C71   1.384       .  A
C71          H73   1.082       .  S
Cu74         N77   2.086   1_554  S
Cu75         N85   2.074       .  S
Cu76         N78   2.073       .  S
Cu76         N84   2.072       .  S
N77          N78   1.324       .  A
N77          C81   1.347       .  A
N78          C79   1.345       .  A
C79          C80   1.379       .  A
C79          H82   1.082       .  S
C80          C81   1.383       .  A
C81          H83   1.082       .  S
N84          N85   1.321   1_556  A
N84          C88   1.346       .  A
N85          C86   1.344       .  A
C86          C87   1.386       .  A
C86          H89   1.082       .  S
C87         C616   1.482       .  S
C87          C88   1.386   1_554  A
C88          H90   1.082       .  S
N91          N92   1.321       .  A
N91          C95   1.342       .  A
N91         Cu99   2.067       .  S
N92          C93   1.349       .  A
N92         Cu98   2.085       .  S
C93          C94   1.390       .  A
C93          H96   1.082       .  S
C94         C606   1.486       .  S
C94          C95   1.384       .  A
C95          H97   1.082       .  S
Cu98        N101   2.086       .  S
Cu99        N109   2.067       .  S
Cu100       N102   2.078       .  S
Cu100       N108   2.077       .  S
N101        N102   1.325       .  A
N101        C105   1.346       .  A
N102        C103   1.346       .  A
C103        C104   1.380       .  A
C103        H106   1.082       .  S
C104        C105   1.381       .  A
C105        H107   1.082       .  S
N108        N109   1.321       .  A
N108        C112   1.348       .  A
N109        C110   1.342       .  A
C110        C111   1.382       .  A
C110        H113   1.082       .  S
C111        C599   1.477       .  S
C111        C112   1.386       .  A
C112        H114   1.082       .  S
O115       Cu123   2.028   1_545  S
O115        C125   1.280       .  A
O116       Cu123   2.022   1_554  S
O116        C126   1.279       .  A
O117       Cu123   2.017       .  S
O117        C127   1.278       .  A
O118       Cu123   2.020   1_544  S
O118        C128   1.279       .  A
O119       Cu124   1.999       .  S
O119        C128   1.276       .  A
O120       Cu124   1.997   1_566  S
O120        C127   1.277       .  A
O121       Cu124   1.992   1_565  S
O121        C126   1.276       .  A
O122       Cu124   1.988   1_556  S
O122        C125   1.276       .  A
Cu123      Cu124   2.373   1_566  S
C125        C639   1.479       .  S
C126        C619   1.472       .  S
C127        C596   1.478       .  S
C128        C589   1.476       .  S
N129        N130   1.321       .  A
N129        C133   1.342       .  A
N129       Cu137   2.066       .  S
N130        C131   1.348       .  A
N130       Cu136   2.080       .  S
C131        C132   1.389       .  A
C131        H134   1.082       .  S
C132        C586   1.483   1_565  S
C132        C133   1.383       .  A
C133        H135   1.082   1_565  S
Cu136       N139   2.081       .  S
Cu137       N147   2.066       .  S
Cu138       N140   2.088       .  S
Cu138       N146   2.087       .  S
N139        N140   1.325       .  A
N139        C143   1.346       .  A
N140        C141   1.347       .  A
C141        C142   1.382       .  A
C141        H144   1.082       .  S
C142        C143   1.380       .  A
C143        H145   1.082       .  S
N146        N147   1.320       .  A
N146        C150   1.350       .  A
N147        C148   1.342       .  A
C148        C149   1.385       .  A
C148        H151   1.081   1_565  S
C149        C579   1.487   1_565  S
C149        C150   1.390       .  A
C150        H152   1.082       .  S
N153        N154   1.320       .  A
N153        C157   1.340       .  A
N153       Cu161   2.054       .  S
N154        C155   1.351       .  A
N154       Cu160   2.093       .  S
C155        C156   1.391       .  A
C155        H158   1.082       .  S
C156        C556   1.483       .  S
C156        C157   1.381       .  A
C157        H159   1.082       .  S
Cu160       N163   2.095       .  S
Cu161       N171   2.054       .  S
Cu162       N164   2.087       .  S
Cu162       N170   2.085   1_554  S
N163        N164   1.326   1_556  A
N163        C167   1.348       .  A
N164        C165   1.347       .  A
C165        C166   1.380   1_554  A
C165        H168   1.082       .  S
C166        C167   1.383       .  A
C167        H169   1.082       .  S
N170        N171   1.320       .  A
N170        C174   1.349       .  A
N171        C172   1.340       .  A
C172        C173   1.381       .  A
C172        H175   1.082       .  S
C173        C566   1.481       .  S
C173        C174   1.390       .  A
C174        H176   1.082   1_556  S
N177        N178   1.321       .  A
N177        C181   1.342       .  A
N177       Cu185   2.070       .  S
N178        C179   1.347       .  A
N178       Cu184   2.071       .  S
C179        C180   1.384       .  A
C179        H182   1.082       .  S
C180        C546   1.477       .  S
C180        C181   1.383       .  A
C181        H183   1.082       .  S
Cu184       N187   2.072       .  S
Cu185       N195   2.070       .  S
Cu186       N188   2.069       .  S
Cu186       N194   2.068       .  S
N187        N188   1.324       .  A
N187        C191   1.345       .  A
N188        C189   1.344       .  A
C189        C190   1.377       .  A
C189        H192   1.082       .  S
C190        C191   1.378       .  A
C191        H193   1.082       .  S
N194        N195   1.321       .  A
N194        C198   1.347       .  A
N195        C196   1.342       .  A
C196        C197   1.384       .  A
C196        H199   1.082       .  S
C197        C539   1.480       .  S
C197        C198   1.386       .  A
C198        H200   1.082       .  S
O201       Cu209   2.026       .  S
O201        C211   1.279       .  A
O202       Cu209   2.022   1_556  S
O202        C212   1.279       .  A
O203       Cu209   2.024       .  S
O203        C213   1.280       .  A
O204       Cu209   2.022   1_455  S
O204        C214   1.279       .  A
O205       Cu210   1.997   1_455  S
O205        C214   1.277       .  A
O206       Cu210   1.994       .  S
O206        C213   1.276       .  A
O207       Cu210   1.990   1_556  S
O207        C212   1.275       .  A
O208       Cu210   1.986       .  S
O208        C211   1.276       .  A
Cu209      Cu210   2.370       .  S
C211        C526   1.482       .  S
C212        C536   1.476       .  S
C213        C559   1.482   1_554  S
C214        C649   1.479       .  S
N215        N216   1.320       .  A
N215        C219   1.342       .  A
N215       Cu223   2.066       .  S
N216        C217   1.347       .  A
N216       Cu222   2.071       .  S
C217        C218   1.386       .  A
C217        H220   1.082       .  S
C218        C519   1.478       .  S
C218        C219   1.383       .  A
C219        H221   1.082       .  S
Cu222       N225   2.072       .  S
Cu223       N233   2.066       .  S
Cu224       N226   2.076       .  S
Cu224       N232   2.074       .  S
N225        N226   1.325   1_455  A
N225        C229   1.344       .  A
N226        C227   1.345       .  A
C227        C228   1.379   1_655  A
C227        H230   1.082       .  S
C228        C229   1.378       .  A
C229        H231   1.082       .  S
N232        N233   1.321   1_655  A
N232        C236   1.348       .  A
N233        C234   1.341       .  A
C234        C235   1.383   1_455  A
C234        H237   1.081       .  S
C235        C529   1.479       .  S
C235        C236   1.386       .  A
C236        H238   1.082       .  S
N239        N240   1.320       .  A
N239        C243   1.340       .  A
N239       Cu247   2.059       .  S
N240        C241   1.347       .  A
N240       Cu246   2.070       .  S
C241        C242   1.386       .  A
C241        H244   1.082       .  S
C242        C499   1.475   1_655  S
C242        C243   1.382       .  A
C243        H245   1.082       .  S
Cu246       N249   2.071       .  S
Cu247       N257   2.059       .  S
Cu248       N250   2.073       .  S
Cu248       N256   2.072       .  S
N249        N250   1.324       .  A
N249        C253   1.344       .  A
N250        C251   1.345       .  A
C251        C252   1.378       .  A
C251        H254   1.082       .  S
C252        C253   1.378       .  A
C253        H255   1.082       .  S
N256        N257   1.321       .  A
N256        C260   1.347       .  A
N257        C258   1.341       .  A
C258        C259   1.382       .  A
C258        H261   1.082       .  S
C259        C509   1.476       .  S
C259        C260   1.385       .  A
C260        H262   1.082       .  S
N263        N264   1.321       .  A
N263        C267   1.343       .  A
N263       Cu271   2.072       .  S
N264        C265   1.349   1_545  A
N264       Cu270   2.080   1_545  S
C265        C266   1.386       .  A
C265        H268   1.082       .  S
C266        C479   1.481       .  S
C266        C267   1.384   1_565  A
C267        H269   1.082       .  S
Cu270       N273   2.081   1_565  S
Cu271       N281   2.072       .  S
Cu272       N274   2.087       .  S
Cu272       N280   2.086       .  S
N273        N274   1.324       .  A
N273        C277   1.345   1_545  A
N274        C275   1.348       .  A
C275        C276   1.383       .  A
C275        H278   1.082       .  S
C276        C277   1.380   1_545  A
C277        H279   1.082       .  S
N280        N281   1.322       .  A
N280        C284   1.349       .  A
N281        C282   1.343       .  A
C282        C283   1.383       .  A
C282        H285   1.082       .  S
C283        C489   1.481       .  S
C283        C284   1.387       .  A
C284        H286   1.082       .  S
O287       Cu295   1.993       .  S
O287        C297   1.276       .  A
O288       Cu295   1.994   1_545  S
O288        C298   1.276       .  A
O289       Cu295   1.994   1_545  S
O289        C299   1.276       .  A
O290       Cu295   1.992   1_655  S
O290        C300   1.276       .  A
O291       Cu296   2.038   1_655  S
O291        C300   1.281       .  A
O292       Cu296   2.037       .  S
O292        C299   1.281   1_565  A
O293       Cu296   2.016   1_545  S
O293        C298   1.278       .  A
O294       Cu296   2.010       .  S
O294        C297   1.277       .  A
Cu295      Cu296   2.371       .  S
C297        C496   1.470       .  S
C298        C516   1.472       .  S
C299        C576   1.482       .  S
C300        C476   1.487       .  S
N301        N302   1.323       .  A
N301        C305   1.343       .  A
N301       Cu309   2.072       .  S
N302        C303   1.348       .  A
N302       Cu308   2.080       .  S
C303        C304   1.386       .  A
C303        H306   1.082   1_556  S
C304        C469   1.478       .  S
C304        C305   1.382       .  A
C305        H307   1.083       .  S
Cu308       N311   2.081   1_556  S
Cu309       N319   2.072       .  S
Cu310       N312   2.070       .  S
Cu310       N318   2.069       .  S
N311        N312   1.324   1_554  A
N311        C315   1.347       .  A
N312        C313   1.343       .  A
C313        C314   1.377   1_556  A
C313        H316   1.082       .  S
C314        C315   1.382       .  A
C315        H317   1.082       .  S
N318        N319   1.321       .  A
N318        C322   1.347       .  A
N319        C320   1.342       .  A
C320        C321   1.385       .  A
C320        H323   1.082       .  S
C321        C456   1.479       .  S
C321        C322   1.385       .  A
C322        H324   1.082       .  S
N325        N326   1.320       .  A
N325        C329   1.341       .  A
N325       Cu333   2.061       .  S
N326        C327   1.347       .  A
N326       Cu332   2.074       .  S
C327        C328   1.387       .  A
C327        H330   1.082       .  S
C328        C439   1.478       .  S
C328        C329   1.383       .  A
C329        H331   1.082       .  S
Cu332       N335   2.076       .  S
Cu333       N343   2.061       .  S
Cu334       N336   2.079       .  S
Cu334       N342   2.078       .  S
N335        N336   1.325   1_655  A
N335        C339   1.345       .  A
N336        C337   1.345       .  A
C337        C338   1.379   1_455  A
C337        H340   1.082       .  S
C338        C339   1.379       .  A
C339        H341   1.082       .  S
N342        N343   1.321   1_455  A
N342        C346   1.349       .  A
N343        C344   1.341   1_655  A
C344        C345   1.381       .  A
C344        H347   1.082   1_455  S
C345        C446   1.476       .  S
C345        C346   1.386       .  A
C346        H348   1.082       .  S
N349        N350   1.321       .  A
N349        C353   1.343       .  A
N349       Cu357   2.071       .  S
N350        C351   1.350       .  A
N350       Cu356   2.089       .  S
C351        C352   1.390       .  A
C351        H354   1.082       .  S
C352        C416   1.486       .  S
C352        C353   1.384       .  A
C353        H355   1.082       .  S
Cu356       N359   2.090       .  S
Cu357       N367   2.071       .  S
Cu358       N360   2.079       .  S
Cu358       N366   2.078       .  S
N359        N360   1.326       .  A
N359        C363   1.347       .  A
N360        C361   1.346       .  A
C361        C362   1.380       .  A
C361        H364   1.082       .  S
C362        C363   1.381       .  A
C363        H365   1.082       .  S
N366        N367   1.321       .  A
N366        C370   1.349       .  A
N367        C368   1.342       .  A
C368        C369   1.383       .  A
C368        H371   1.082       .  S
C369        C426   1.481       .  S
C369        C370   1.387       .  A
C370        H372   1.082       .  S
O373       Cu381   2.002   1_564  S
O373        C383   1.277       .  A
O374       Cu381   1.998       .  S
O374        C384   1.276       .  A
O375       Cu381   1.994   1_554  S
O375        C385   1.276       .  A
O376       Cu381   1.995       .  S
O376        C386   1.277       .  A
O377       Cu382   2.024       .  S
O377        C386   1.279       .  A
O378       Cu382   2.026   1_554  S
O378        C385   1.280       .  A
O379       Cu382   2.017       .  S
O379        C384   1.279       .  A
O380       Cu382   2.019   1_564  S
O380        C383   1.279       .  A
Cu381      Cu382   2.371       .  S
C383        C466   1.479       .  S
C384        C569   1.481       .  S
C385        C486   1.474       .  S
C386        C429   1.478       .  S
O387       Cu395   2.020   1_545  S
O387        C397   1.278       .  A
O388       Cu395   2.020       .  S
O388        C398   1.279       .  A
O389       Cu395   2.031   1_655  S
O389        C399   1.280       .  A
O390       Cu395   2.030       .  S
O390        C400   1.281       .  A
O391       Cu396   2.003       .  S
O391        C400   1.277       .  A
O392       Cu396   2.003   1_655  S
O392        C399   1.277       .  A
O393       Cu396   1.993       .  S
O393        C398   1.276       .  A
O394       Cu396   1.997   1_545  S
O394        C397   1.277       .  A
Cu395      Cu396   2.370       .  S
C397        C549   1.478       .  S
C398        C449   1.476       .  S
C399        C419   1.483       .  S
C400        C609   1.487       .  S
O401       Cu409   1.987       .  S
O401        C411   1.276       .  A
O402       Cu409   1.988   1_556  S
O402        C412   1.275       .  A
O403       Cu409   1.982       .  S
O403        C413   1.274       .  A
O404       Cu409   1.987   1_455  S
O404        C414   1.275       .  A
O405       Cu410   2.030   1_455  S
O405        C414   1.281       .  A
O406       Cu410   2.035       .  S
O406        C413   1.281       .  A
O407       Cu410   2.020   1_556  S
O407        C412   1.279       .  A
O408       Cu410   2.020       .  S
O408        C411   1.279       .  A
Cu409      Cu410   2.372       .  S
C411        C506   1.473       .  S
C412        C436   1.473       .  S
C413        C459   1.479       .  S
C414        C629   1.480       .  S
C415        C416   1.404   1_565  A
C415        C420   1.398       .  A
C415        H422   1.084       .  S
C416        C417   1.413       .  A
C417        C418   1.406       .  A
C417       Br424   1.918       .  S
C418        C419   1.406   1_545  A
C418        H423   1.083       .  S
C419        C420   1.410       .  A
C420       Br421   1.921       .  S
C425        C426   1.406       .  A
C425        C430   1.404       .  A
C425        H432   1.083       .  S
C426        C427   1.411   1_545  A
C427        C428   1.395       .  A
C427       Br434   1.921       .  S
C428        C429   1.402   1_565  A
C428        H433   1.084       .  S
C429        C430   1.412       .  A
C430       Br431   1.920       .  S
C435        C436   1.403   1_455  A
C435        C440   1.402       .  A
C435        H442   1.084       .  S
C436        C437   1.410       .  A
C437        C438   1.394       .  A
C437       Br444   1.923       .  S
C438        C439   1.402       .  A
C438        H443   1.084       .  S
C439        C440   1.413   1_655  A
C440       Br441   1.919       .  S
C445        C446   1.404   1_655  A
C445        C450   1.403       .  A
C445        H452   1.083       .  S
C446        C447   1.409       .  A
C447        C448   1.394       .  A
C447       Br454   1.921       .  S
C448        C449   1.403       .  A
C448        H453   1.084       .  S
C449        C450   1.411   1_455  A
C450       Br451   1.919       .  S
C455        C456   1.401   1_554  A
C455        C460   1.394       .  A
C455        H462   1.084       .  S
C456        C457   1.412       .  A
C457        C458   1.404       .  A
C457       Br464   1.919       .  S
C458        C459   1.405   1_556  A
C458        H463   1.084       .  S
C459        C460   1.412       .  A
C460       Br461   1.922       .  S
C465        C466   1.405   1_556  A
C465        C470   1.403       .  A
C465        H472   1.084       .  S
C466        C467   1.410       .  A
C467        C468   1.397       .  A
C467       Br474   1.921       .  S
C468        C469   1.403   1_554  A
C468        H473   1.084       .  S
C469        C470   1.410       .  A
C470       Br471   1.919       .  S
C475        C476   1.406       .  A
C475        C480   1.396       .  A
C475        H482   1.084       .  S
C476        C477   1.414   1_565  A
C477        C478   1.406       .  A
C477       Br484   1.919       .  S
C478        C479   1.405   1_545  A
C478        H483   1.083       .  S
C479        C480   1.408       .  A
C480       Br481   1.921       .  S
C485        C486   1.402       .  A
C485        C490   1.397       .  A
C485        H492   1.084       .  S
C486        C487   1.408   1_545  A
C487        C488   1.403   1_565  A
C487       Br494   1.919       .  S
C488        C489   1.406       .  A
C488        H493   1.083   1_545  S
C489        C490   1.411       .  A
C490       Br491   1.920       .  S
C495        C496   1.404   1_655  A
C495        C500   1.401       .  A
C495        H502   1.084       .  S
C496        C497   1.407       .  A
C497        C498   1.394       .  A
C497       Br504   1.921       .  S
C498        C499   1.403       .  A
C498        H503   1.084       .  S
C499        C500   1.411   1_455  A
C500       Br501   1.919       .  S
C505        C506   1.402       .  A
C505        C510   1.393       .  A
C505        H512   1.084       .  S
C506        C507   1.410   1_655  A
C507        C508   1.402       .  A
C507       Br514   1.919       .  S
C508        C509   1.405   1_455  A
C508        H513   1.083       .  S
C509        C510   1.410       .  A
C510       Br511   1.921       .  S
C515        C516   1.403       .  A
C515        C520   1.401       .  A
C515        H522   1.084       .  S
C516        C517   1.408   1_455  A
C517        C518   1.395       .  A
C517       Br524   1.921       .  S
C518        C519   1.404   1_655  A
C518        H523   1.084       .  S
C519        C520   1.412       .  A
C520       Br521   1.919       .  S
C525        C526   1.404       .  A
C525        C530   1.392       .  A
C525        H532   1.084       .  S
C526        C527   1.414   1_655  A
C527        C528   1.404       .  A
C527       Br534   1.920       .  S
C528        C529   1.406   1_455  A
C528        H533   1.083       .  S
C529        C530   1.409       .  A
C530       Br531   1.922       .  S
C535        C536   1.404   1_455  A
C535        C540   1.402       .  A
C535        H542   1.084       .  S
C536        C537   1.411       .  A
C537        C538   1.395       .  A
C537       Br544   1.923       .  S
C538        C539   1.403   1_655  A
C538        H543   1.084       .  S
C539        C540   1.412       .  A
C540       Br541   1.918       .  S
C545        C546   1.404       .  A
C545        C550   1.403       .  A
C545        H552   1.083       .  S
C546        C547   1.409   1_455  A
C547        C548   1.396       .  A
C547       Br554   1.921       .  S
C548        C549   1.404   1_655  A
C548        H553   1.084       .  S
C549        C550   1.412       .  A
C550       Br551   1.919       .  S
C555        C556   1.404   1_554  A
C555        C560   1.395       .  A
C555        H562   1.084       .  S
C556        C557   1.411       .  A
C557        C558   1.404       .  A
C557       Br564   1.918       .  S
C558        C559   1.406       .  A
C558        H563   1.083       .  S
C559        C560   1.413   1_556  A
C560       Br561   1.924       .  S
C565        C566   1.403   1_554  A
C565        C570   1.395       .  A
C565        H572   1.084       .  S
C566        C567   1.411       .  A
C567        C568   1.403       .  A
C567       Br574   1.918       .  S
C568        C569   1.407       .  A
C568        H573   1.083       .  S
C569        C570   1.413   1_556  A
C570       Br571   1.923       .  S
C575        C576   1.403       .  A
C575        C580   1.397       .  A
C575        H582   1.084       .  S
C576        C577   1.411   1_545  A
C577        C578   1.405       .  A
C577       Br584   1.918       .  S
C578        C579   1.407   1_565  A
C578        H583   1.083       .  S
C579        C580   1.413       .  A
C580       Br581   1.921       .  S
C585        C586   1.405       .  A
C585        C590   1.398       .  A
C585        H592   1.083       .  S
C586        C587   1.413   1_545  A
C587        C588   1.401       .  A
C587       Br594   1.919       .  S
C588        C589   1.403   1_565  A
C588        H593   1.084       .  S
C589        C590   1.409       .  A
C590       Br591   1.921       .  S
C595        C596   1.406       .  A
C595        C600   1.403       .  A
C595        H602   1.084       .  S
C596        C597   1.411   1_565  A
C597        C598   1.395       .  A
C597       Br604   1.922       .  S
C598        C599   1.402   1_545  A
C598        H603   1.084       .  S
C599        C600   1.410       .  A
C600       Br601   1.919       .  S
C605        C606   1.404   1_545  A
C605        C610   1.398       .  A
C605        H612   1.083       .  S
C606        C607   1.412       .  A
C607        C608   1.404       .  A
C607       Br614   1.919       .  S
C608        C609   1.407       .  A
C608        H613   1.083       .  S
C609        C610   1.413   1_565  A
C610       Br611   1.922       .  S
C615        C616   1.405       .  A
C615        C620   1.397       .  A
C615        H622   1.083       .  S
C616        C617   1.414   1_554  A
C617        C618   1.401       .  A
C617       Br624   1.919       .  S
C618        C619   1.402   1_556  A
C618        H623   1.084       .  S
C619        C620   1.407       .  A
C620       Br621   1.921       .  S
C625        C626   1.402   1_556  A
C625        C630   1.395       .  A
C625        H632   1.083       .  S
C626        C627   1.412       .  A
C627        C628   1.405       .  A
C627       Br634   1.918       .  S
C628        C629   1.406       .  A
C628        H633   1.084       .  S
C629        C630   1.412   1_554  A
C630       Br631   1.923       .  S
C635        C636   1.405   1_554  A
C635        C640   1.404       .  A
C635        H642   1.083       .  S
C636        C637   1.410       .  A
C637        C638   1.393       .  A
C637       Br644   1.922       .  S
C638        C639   1.403       .  A
C638        H643   1.084       .  S
C639        C640   1.412   1_556  A
C640       Br641   1.919       .  S
C645        C646   1.405   1_556  A
C645        C650   1.402       .  A
C645        H652   1.083       .  S
C646        C647   1.411       .  A
C647        C648   1.396       .  A
C647       Br654   1.921       .  S
C648        C649   1.403       .  A
C648        H653   1.084       .  S
C649        C650   1.411   1_554  A
C650       Br651   1.919       .  S
