geometry optimzed in LAMMPS
_audit_creation_date              2020-11-30 
_audit_creation_method            'lammps2cif' 
_symmetry_space_group_name_H-M    'P1' 
_symmetry_Int_Tables_number       1 
_symmetry_cell_setting            triclinic 
loop_ 
_symmetry_equiv_pos_as_xyz 
  x,y,z 
_cell_length_a                    57.72179376 
_cell_length_b                    57.73417209842423 
_cell_length_c                    90.71994046850429 
_cell_angle_alpha                 89.8137207576862 
_cell_angle_beta                  90.09289425044489 
_cell_angle_gamma                 121.03028559570055 
loop_ 
_atom_site_label 
_atom_site_type_symbol 
_atom_site_fract_x 
_atom_site_fract_y 
_atom_site_fract_z 
_atom_site_charge 
N1          N  0.31005380  0.32608060  0.65572711    -0.25700
N2          N  0.32627748  0.34917132  0.64882566    -0.33600
C3          C  0.31125170  0.35649284  0.64096813     0.02600
C4          C  0.28432570  0.33715320  0.64292202     0.08700
C5          C  0.28419691  0.31813078  0.65233739    -0.04400
H6          H  0.31941175  0.37427627  0.63402668     0.09300
H7          H  0.26667313  0.29968560  0.65623922     0.10500
Cu8        Cu  0.36833780  0.36892261  0.64897396     0.44200
Cu9        Cu  0.32424141  0.30619396  0.66910217     0.42000
Cu10       Cu  0.39774862  0.33785497  0.66963318     0.43900
N11         N  0.40931850  0.38190926  0.64796809    -0.33100
N12         N  0.42005248  0.37012502  0.65551714    -0.27300
C13         C  0.44574411  0.38019172  0.65108775    -0.03400
C14         C  0.45157387  0.39942693  0.64030376     0.08800
C15         C  0.42797675  0.39988695  0.63853907     0.02600
H16         H  0.45851493  0.37258212  0.65460607     0.10200
H17         H  0.42399706  0.41078014  0.63016893     0.09300
N18         N  0.37169604  0.30406718  0.68197526    -0.34500
N19         N  0.34500423  0.29213084  0.68180549    -0.26700
C20         C  0.33461490  0.27054294  0.69093691    -0.02000
C21         C  0.35582494  0.26901826  0.69701596     0.06700
C22         C  0.37895050  0.29053819  0.69114004     0.04700
H23         H  0.31327033  0.25703166  0.69300207     0.09800
H24         H  0.39959340  0.29598868  0.69332048     0.08700
N25         N  0.90395525  0.29277468  0.68316423    -0.25700
N26         N  0.88809248  0.30308932  0.68287342    -0.33600
C27         C  0.86855768  0.29033991  0.69309261     0.02600
C28         C  0.87242549  0.27126684  0.70005480     0.08700
C29         C  0.89494774  0.27328632  0.69352907    -0.04400
H30         H  0.85273282  0.29464763  0.69527616     0.09300
H31         H  0.90417664  0.26152745  0.69611213     0.10500
Cu32       Cu  0.89351906  0.33419555  0.66868631     0.44200
Cu33       Cu  0.93756580  0.30556145  0.66981784     0.42000
Cu34       Cu  0.95180072  0.36057869  0.64511097     0.43900
N35         N  0.90368037  0.36522621  0.65337033    -0.33100
N36         N  0.92518056  0.37483405  0.64475405    -0.27300
C37         C  0.92539953  0.39312976  0.63541054    -0.03400
C38         C  0.90312112  0.39541558  0.63831067     0.08800
C39         C  0.88967656  0.37724988  0.64970374     0.02600
H40         H  0.93987045  0.40293335  0.62658933     0.10200
H41         H  0.87032538  0.37201732  0.65435976     0.09300
N42         N  0.97602106  0.34367190  0.64692190    -0.34500
N43         N  0.97087087  0.32351519  0.65594600    -0.26700
C44         C  0.99047415  0.31756353  0.65454551    -0.02000
C45         C  0.00872487  0.33485100  0.64415845     0.06700
C46         C  0.99900185  0.35105463  0.63952295     0.04700
H47         H  0.99132347  0.30186006  0.66062415     0.09800
H48         H  0.00793946  0.36703558  0.63136976     0.08700
N49         N  0.18521222  0.34073638  0.61761636    -0.25700
N50         N  0.20045158  0.34964495  0.60562924    -0.33600
C51         C  0.22340395  0.34942096  0.60802881     0.02600
C52         C  0.22247149  0.33981606  0.62214217     0.08700
C53         C  0.19804240  0.33451576  0.62790306    -0.04400
H54         H  0.23968624  0.35606998  0.60014299     0.09300
H55         H  0.19038029  0.32720786  0.63887333     0.10500
Cu56       Cu  0.18923405  0.36167877  0.58651081     0.44200
Cu57       Cu  0.14823759  0.33888594  0.61984015     0.42000
Cu58       Cu  0.12548887  0.35970314  0.58813753     0.43900
N59         N  0.17181005  0.36979212  0.56856674    -0.33100
N60         N  0.14839401  0.36871180  0.56923688    -0.27300
C61         C  0.14271852  0.37502791  0.55598217    -0.03400
C62         C  0.16356091  0.38048335  0.54646371     0.08800
C63         C  0.18170445  0.37693010  0.55480010     0.02600
H64         H  0.12498364  0.37619079  0.55355311     0.10200
H65         H  0.20088224  0.37974731  0.55128214     0.09300
N66         N  0.10542540  0.34926882  0.60806619    -0.34500
N67         N  0.11331652  0.34129399  0.61972811    -0.26700
C68         C  0.09557271  0.33576883  0.63077563    -0.02000
C69         C  0.07579523  0.34055888  0.62570040     0.06700
C70         C  0.08263672  0.34909312  0.61132388     0.04700
H71         H  0.09700022  0.32883535  0.64164398     0.09800
H72         H  0.07183148  0.35469234  0.60374577     0.08700
N73         N  0.97191086  0.66140366  0.65239944    -0.25700
N74         N  0.97727513  0.64663496  0.64349110    -0.33600
C75         C  0.99953787  0.66315431  0.63556723     0.02600
C76         C  0.00857605  0.68947112  0.63967901     0.08700
C77         C  0.99067244  0.68773305  0.65035225    -0.04400
H78         H  0.00856527  0.65645860  0.62747402     0.09300
H79         H  0.99128673  0.70429588  0.65625541     0.10500
Cu80       Cu  0.95434049  0.60456369  0.64248256     0.44200
Cu81       Cu  0.93930691  0.64492586  0.66699891     0.42000
Cu82       Cu  0.89489265  0.57192826  0.66585597     0.43900
N83         N  0.92785934  0.56281679  0.64313747    -0.33100
N84         N  0.90613314  0.55084583  0.65163553    -0.27300
C85         C  0.89223878  0.52417138  0.64860108    -0.03400
C86         C  0.90592431  0.51902552  0.63776396     0.08800
C87         C  0.92825784  0.54409192  0.63448694     0.02600
H88         H  0.87259869  0.50988265  0.65313577     0.10200
H89         H  0.94270422  0.54863109  0.62573043     0.09300
N90         N  0.88824383  0.59723716  0.67945318    -0.34500
N91         N  0.90468314  0.62379153  0.67999383    -0.26700
C92         C  0.89485220  0.63417563  0.68973938    -0.02000
C93         C  0.87108103  0.61322297  0.69556143     0.06700
C94         C  0.86747460  0.59010357  0.68882297     0.04700
H95         H  0.90418784  0.65545010  0.69226828     0.09800
H96         H  0.85090363  0.56962017  0.69053365     0.08700
N97         N  0.31626821  0.99969551  0.66078802    -0.25700
N98         N  0.33161525  0.99306438  0.65326809    -0.33600
C99         C  0.31582185  0.97126830  0.64495192     0.02600
C100        C  0.28930838  0.96382570  0.64735436     0.08700
C101        C  0.29015007  0.98216961  0.65742388    -0.04400
H102        H  0.32317485  0.96181303  0.63755197     0.09300
H103        H  0.27315809  0.98291373  0.66185936     0.10500
Cu104      Cu  0.37335796  0.01457701  0.65385433     0.44200
Cu105      Cu  0.33215296  0.03274565  0.67495836     0.42000
Cu106      Cu  0.40618023  0.07293453  0.67714878     0.43900
N107        N  0.41464338  0.04118099  0.65382875    -0.33100
N108        N  0.42695984  0.06278799  0.66233274    -0.27300
C109        C  0.45309881  0.07769822  0.65825623    -0.03400
C110        C  0.45727885  0.06468693  0.64668578     0.08800
C111        C  0.43247912  0.04173387  0.64413274     0.02600
H112        H  0.46739909  0.09748944  0.66257868     0.10200
H113        H  0.42731572  0.02759046  0.63516187     0.09300
N114        N  0.38047544  0.08116751  0.68904501    -0.34500
N115        N  0.35375162  0.06687840  0.68814431    -0.26700
C116        C  0.34349543  0.07846743  0.69670727    -0.02000
C117        C  0.36475021  0.10100989  0.70324504     0.06700
C118        C  0.38786650  0.10216699  0.69819425     0.04700
H119        H  0.32217393  0.07121642  0.69790490     0.09800
H120        H  0.40855471  0.11739422  0.70075101     0.08700
N121        N  0.19033692  0.86218643  0.61963948    -0.25700
N122        N  0.20692513  0.86985321  0.60820377    -0.33600
C123        C  0.22975007  0.89317516  0.61148829     0.02600
C124        C  0.22730915  0.90047486  0.62560511     0.08700
C125        C  0.20219758  0.88047228  0.63050153    -0.04400
H126        H  0.24705597  0.90365997  0.60425540     0.09300
H127        H  0.19341574  0.87896900  0.64124790     0.10500
Cu128      Cu  0.19876538  0.84766285  0.58893372     0.44200
Cu129      Cu  0.15284000  0.82660155  0.62024558     0.42000
Cu130      Cu  0.13553176  0.78419518  0.58768559     0.43900
N131        N  0.18762716  0.82071658  0.57153373    -0.33100
N132        N  0.16460805  0.79724035  0.57110264    -0.27300
C133        C  0.16416406  0.78395652  0.55881884    -0.03400
C134        C  0.18812476  0.79991472  0.55116640     0.08800
C135        C  0.20236643  0.82306653  0.55953799     0.02600
H136        H  0.14769728  0.76410536  0.55581448     0.10200
H137        H  0.22227797  0.84019327  0.55721842     0.09300
N138        N  0.11042744  0.77461699  0.60601298    -0.34500
N139        N  0.11675532  0.78986898  0.61793898    -0.26700
C140        C  0.09668182  0.77733350  0.62790208    -0.02000
C141        C  0.07684698  0.75317095  0.62189458     0.06700
C142        C  0.08616760  0.75204700  0.60806680     0.04700
H143        H  0.09679633  0.78501720  0.63878211     0.09800
H144        H  0.07633720  0.73574639  0.60019164     0.08700
N145        N  0.56591100  0.09634101  0.60890796    -0.35000
N146        N  0.53812607  0.11600635  0.59021400    -0.55600
N147        N  0.49524875  0.09716626  0.61192059    -0.35000
N148        N  0.52449372  0.08023221  0.63148659    -0.55600
C149        C  0.58536583  0.11046628  0.59872587     0.28600
C150        C  0.57757420  0.09051434  0.62014767     0.28600
C151        C  0.48783950  0.11083048  0.60275814     0.28600
C152        C  0.48026725  0.09132997  0.62433847     0.28600
C153        C  0.55887281  0.12152317  0.58112073     0.37200
C154        C  0.52134263  0.12144789  0.58257150     0.37200
C155        C  0.53870718  0.07006176  0.63774137     0.37200
C156        C  0.50125103  0.07019298  0.63923924     0.37200
C157        C  0.60948778  0.11304279  0.60342029    -0.20300
C158        C  0.60456077  0.10043142  0.61687377    -0.20300
C159        C  0.46761328  0.11335444  0.60938557    -0.20300
C160        C  0.46279084  0.10101653  0.62294387    -0.20300
C161        C  0.55530912  0.13063017  0.56762356    -0.21400
C162        C  0.53153385  0.13054299  0.56853429    -0.21400
C163        C  0.52472085  0.05399956  0.64973227    -0.21400
C164        C  0.50098719  0.05405540  0.65067491    -0.21400
C165        C  0.58207796  0.12068788  0.58517009    -0.16700
C166        C  0.56449534  0.07571219  0.63307481    -0.16700
C167        C  0.48065000  0.07606781  0.63652010    -0.16700
C168        C  0.49814060  0.12040425  0.58842140    -0.16700
H169        H  0.62874921  0.12301277  0.59775902     0.16200
H170        H  0.61931866  0.09892254  0.62351758     0.16200
H171        H  0.45723395  0.12295094  0.60489826     0.16200
H172        H  0.44794043  0.09929506  0.63083313     0.16200
H173        H  0.56871615  0.13718028  0.55819618     0.14500
H174        H  0.52305869  0.13703213  0.55995257     0.14500
H175        H  0.53094928  0.04333397  0.65702966     0.14500
H176        H  0.48535532  0.04347201  0.65887398     0.14500
H177        H  0.54545295  0.08895324  0.60763896     0.27700
H178        H  0.50757804  0.08967389  0.60928612     0.27700
N179        N  0.44601491  0.26884780  0.54974893    -0.25700
N180        N  0.45716950  0.26243598  0.56054139    -0.33600
C181        C  0.46852104  0.28277944  0.57030482     0.02600
C182        C  0.46433414  0.30296891  0.56548848     0.08700
C183        C  0.45006614  0.29365964  0.55241936    -0.04400
H184        H  0.47939063  0.28297545  0.58007862     0.09300
H185        H  0.44349264  0.30423514  0.54528972     0.10500
Cu186      Cu  0.45782748  0.22701989  0.56158562     0.44200
Cu187      Cu  0.42692274  0.24350800  0.53171875     0.42000
Cu188      Cu  0.43028842  0.18119279  0.53167706     0.43900
N189        N  0.45839996  0.19155747  0.56081665    -0.33100
N190        N  0.44836055  0.17435016  0.54972549    -0.27300
C191        C  0.45258547  0.15378877  0.55232390    -0.03400
C192        C  0.46585559  0.15851559  0.56569774     0.08800
C193        C  0.46923671  0.18255161  0.57075840     0.02600
H194        H  0.44678880  0.13695820  0.54496062     0.10200
H195        H  0.47921963  0.19298488  0.58081244     0.09300
N196        N  0.41361307  0.19272617  0.51487038    -0.34500
N197        N  0.41198368  0.21479009  0.51482291    -0.26700
C198        C  0.40060213  0.21585801  0.50202680    -0.02000
C199        C  0.39494208  0.19345914  0.49363828     0.06700
C200        C  0.40345376  0.17936186  0.50215431     0.04700
H201        H  0.39733117  0.23207517  0.49896892     0.09800
H202        H  0.40272751  0.16085472  0.49920322     0.08700
N203        N  0.53784058  0.42106709  0.58760257    -0.35000
N204        N  0.49264478  0.39949835  0.60816950    -0.55600
N205        N  0.51888374  0.45114567  0.62398359    -0.35000
N206        N  0.56538198  0.47148127  0.60437239    -0.55600
C207        C  0.52394060  0.39497620  0.58314833     0.28600
C208        C  0.56263134  0.43286405  0.58132406     0.28600
C209        C  0.49793372  0.43597713  0.63320129     0.28600
C210        C  0.53674576  0.47388906  0.63132445     0.28600
C211        C  0.48234903  0.37875574  0.59846142     0.37200
C212        C  0.47241132  0.39448045  0.61758269     0.37200
C213        C  0.58340922  0.47835935  0.59327953     0.37200
C214        C  0.57360741  0.49409049  0.61242309     0.37200
C215        C  0.53991023  0.39030975  0.57364522    -0.20300
C216        C  0.56428870  0.41416013  0.57250968    -0.20300
C217        C  0.50218785  0.44959616  0.64642576    -0.20300
C218        C  0.52664256  0.47345343  0.64525103    -0.20300
C219        C  0.45560906  0.36025746  0.60188712    -0.21400
C220        C  0.44931795  0.37018278  0.61396283    -0.21400
C221        C  0.60324487  0.50548139  0.59432091    -0.21400
C222        C  0.59704363  0.51542786  0.60642654    -0.21400
C223        C  0.49697988  0.37547255  0.58698681    -0.16700
C224        C  0.58352937  0.46019691  0.58290446    -0.16700
C225        C  0.56157696  0.49535963  0.62574151    -0.16700
C226        C  0.47470041  0.41057519  0.62990883    -0.16700
H227        H  0.53459572  0.37164334  0.56809107     0.16200
H228        H  0.58127896  0.41734008  0.56589104     0.16200
H229        H  0.48909190  0.44298816  0.65598327     0.16200
H230        H  0.53593120  0.48872016  0.65372724     0.16200
H231        H  0.44206477  0.34144941  0.59633024     0.14500
H232        H  0.42994541  0.36041401  0.61950080     0.14500
H233        H  0.62066638  0.51683059  0.58725338     0.14500
H234        H  0.60877124  0.53593036  0.61049092     0.14500
H235        H  0.53002311  0.43088635  0.59342347     0.27700
H236        H  0.51969294  0.44730765  0.61291809     0.27700
N237        N  0.68763295  0.50594445  0.54423313    -0.25700
N238        N  0.69512243  0.49644688  0.55536358    -0.33600
C239        C  0.67480514  0.48462600  0.56516927     0.02600
C240        C  0.65361055  0.48683384  0.55989490     0.08700
C241        C  0.66227051  0.50041657  0.54663142    -0.04400
H242        H  0.67550366  0.47527357  0.57538406     0.09300
H243        H  0.65112466  0.50602891  0.53932352     0.10500
Cu244      Cu  0.73254357  0.49998290  0.55646634     0.44200
Cu245      Cu  0.71267280  0.52600465  0.52648648     0.42000
Cu246      Cu  0.77879356  0.53224823  0.52547372     0.43900
N247        N  0.76989544  0.50349962  0.55472886    -0.33100
N248        N  0.78683447  0.51493483  0.54355232    -0.27300
C249        C  0.80851743  0.51236519  0.54579625    -0.03400
C250        C  0.80478878  0.49873506  0.55896523     0.08800
C251        C  0.78023669  0.49344179  0.56431693     0.02600
H252        H  0.82538278  0.51939537  0.53827900     0.10200
H253        H  0.77026836  0.48252647  0.57429119     0.09300
N254        N  0.76410623  0.54647787  0.50885728    -0.34500
N255        N  0.74013912  0.54425644  0.50942145    -0.26700
C256        C  0.73630684  0.55472048  0.49704567    -0.02000
C257        C  0.75879472  0.56393111  0.48815987     0.06700
C258        C  0.77611081  0.55841211  0.49601020     0.04700
H259        H  0.71818999  0.55515775  0.49457861     0.09800
H260        H  0.79579598  0.56240474  0.49262341     0.08700
N261        N  0.68455847  0.18084915  0.54511358    -0.25700
N262        N  0.69007944  0.19936045  0.55526802    -0.33600
C263        C  0.66984230  0.18945437  0.56513236     0.02600
C264        C  0.65077035  0.16355030  0.56093333     0.08700
C265        C  0.66057942  0.15857401  0.54822536    -0.04400
H266        H  0.66895692  0.20044338  0.57454125     0.09300
H267        H  0.65090861  0.14040519  0.54161551     0.10500
Cu268      Cu  0.72451505  0.23742469  0.55500801     0.44200
Cu269      Cu  0.70959451  0.18798075  0.52726111     0.42000
Cu270      Cu  0.77097842  0.25533429  0.52439924     0.43900
N271        N  0.76054240  0.27403014  0.55339908    -0.33100
N272        N  0.77783994  0.28087560  0.54234887    -0.27300
C273        C  0.79956760  0.30551625  0.54514738    -0.03400
C274        C  0.79555107  0.31428759  0.55856898     0.08800
C275        C  0.77067261  0.29394142  0.56345284     0.02600
H276        H  0.81710503  0.31600917  0.53807713     0.10200
H277        H  0.76082409  0.29337557  0.57370112     0.09300
N278        N  0.75823319  0.22503438  0.50839074    -0.34500
N279        N  0.73609367  0.20088330  0.50964101    -0.26700
C280        C  0.73324913  0.18631192  0.49753797    -0.02000
C281        C  0.75456194  0.20176645  0.48815870     0.06700
C282        C  0.77009341  0.22629677  0.49536689     0.04700
H283        H  0.71671591  0.16587898  0.49567946     0.09800
H284        H  0.78847643  0.24384238  0.49144377     0.08700
N285        N  0.86864636  0.40341337  0.60504941    -0.35000
N286        N  0.84812914  0.42889125  0.58539702    -0.55600
N287        N  0.87117820  0.47607200  0.60458928    -0.35000
N288        N  0.88953646  0.44965441  0.62510761    -0.55600
C289        C  0.85274611  0.38228677  0.59607680     0.28600
C290        C  0.87561224  0.39358269  0.61673160     0.28600
C291        C  0.85641061  0.48192804  0.59534736     0.28600
C292        C  0.87831314  0.49302962  0.61623812     0.28600
C293        C  0.84132309  0.40668276  0.57728064     0.37200
C294        C  0.84327094  0.44518137  0.57687780     0.37200
C295        C  0.89955118  0.43577901  0.63198379     0.37200
C296        C  0.90051650  0.47403611  0.63182684     0.37200
C297        C  0.85003138  0.35884822  0.60201127    -0.20300
C298        C  0.86451062  0.36596030  0.61495259    -0.20300
C299        C  0.85449421  0.50310704  0.60109330    -0.20300
C300        C  0.86833334  0.51014882  0.61420356    -0.20300
C301        C  0.83200400  0.40885527  0.56354328    -0.21400
C302        C  0.83327017  0.43324061  0.56328377    -0.21400
C303        C  0.91662809  0.45129204  0.64331695    -0.21400
C304        C  0.91722253  0.47545974  0.64322060    -0.21400
C305        C  0.84132518  0.38356876  0.58244751    -0.16700
C306        C  0.89249413  0.40884433  0.62869606    -0.16700
C307        C  0.89466170  0.49449536  0.62831758    -0.16700
C308        C  0.84540853  0.46947784  0.58161723    -0.16700
H309        H  0.83887732  0.33866600  0.59746048     0.16200
H310        H  0.86651277  0.35220505  0.62222602     0.16200
H311        H  0.84429458  0.51266232  0.59631188     0.16200
H312        H  0.87076864  0.52619664  0.62136688     0.16200
H313        H  0.82461360  0.39419646  0.55470951     0.14500
H314        H  0.82697735  0.44101199  0.55423598     0.14500
H315        H  0.92733961  0.44568649  0.65096172     0.14500
H316        H  0.92847723  0.49208139  0.65076533     0.14500
H317        H  0.87641266  0.42365363  0.60268343     0.27700
H318        H  0.87834808  0.46329821  0.60234546     0.27700
N319        N  0.68684718  0.06881876  0.68359404    -0.25700
N320        N  0.67565736  0.08391134  0.68376998    -0.33600
C321        C  0.68873054  0.10387045  0.69369534     0.02600
C322        C  0.70900036  0.10122411  0.70007547     0.08700
C323        C  0.70728477  0.07884012  0.69344831    -0.04400
H324        H  0.68375273  0.11913935  0.69612066     0.09300
H325        H  0.71989890  0.07040828  0.69563153     0.10500
Cu326      Cu  0.64281862  0.07704087  0.67071212     0.44200
Cu327      Cu  0.67393579  0.03510436  0.66997972     0.42000
Cu328      Cu  0.61814334  0.02081311  0.64595415     0.43900
N329        N  0.61060501  0.06605434  0.65621819    -0.33100
N330        N  0.60188063  0.04541265  0.64707838    -0.27300
C331        C  0.58276156  0.04461293  0.63824583    -0.03400
C332        C  0.57893940  0.06555499  0.64206780     0.08800
C333        C  0.59706689  0.07890013  0.65344190     0.02600
H334        H  0.57349803  0.03081172  0.62911542     0.10200
H335        H  0.60135310  0.09756737  0.65860500     0.09300
N336        N  0.63636500  0.99793630  0.64634996    -0.34500
N337        N  0.65673933  0.00282764  0.65511494    -0.26700
C338        C  0.66343492  0.98395557  0.65266748    -0.02000
C339        C  0.64641466  0.96657883  0.64187917     0.06700
C340        C  0.62957324  0.97599583  0.63812916     0.04700
H341        H  0.67938707  0.98293082  0.65833923     0.09800
H342        H  0.61345440  0.96748302  0.63006565     0.08700
N343        N  0.64555511  0.66022119  0.65436484    -0.25700
N344        N  0.62422177  0.64425581  0.64615634    -0.33600
C345        C  0.61688213  0.65944218  0.63850172     0.02600
C346        C  0.63436244  0.68617798  0.64205557     0.08700
C347        C  0.65232757  0.68608144  0.65212825    -0.04400
H348        H  0.60034942  0.65159059  0.63070221     0.09300
H349        H  0.66928326  0.70346767  0.65725825     0.10500
Cu350      Cu  0.60685535  0.60265758  0.64473606     0.44200
Cu351      Cu  0.66484227  0.64572817  0.66767920     0.42000
Cu352      Cu  0.64000362  0.57333100  0.66377593     0.43900
N353        N  0.59532309  0.56232924  0.64254741    -0.33100
N354        N  0.60798881  0.55163342  0.64925873    -0.27300
C355        C  0.59730495  0.52591951  0.64471123    -0.03400
C356        C  0.57678855  0.52014968  0.63478754     0.08800
C357        C  0.57616228  0.54370254  0.63361066     0.02600
H358        H  0.60444462  0.51265929  0.64803546     0.10200
H359        H  0.56349672  0.54737024  0.62635125     0.09300
N360        N  0.67089617  0.59911107  0.67803103    -0.34500
N361        N  0.67990132  0.62523778  0.67946988    -0.26700
C362        C  0.69982120  0.63572273  0.68959930    -0.02000
C363        C  0.70342218  0.61523909  0.69471685     0.06700
C364        C  0.68482848  0.59233988  0.68720958     0.04700
H365        H  0.71081748  0.65668051  0.69297536     0.09800
H366        H  0.68161532  0.57222215  0.68832220     0.08700
N367        N  0.62859084  0.78478107  0.61812376    -0.25700
N368        N  0.61941144  0.76920544  0.60630760    -0.33600
C369        C  0.61997805  0.74650193  0.60877726     0.02600
C370        C  0.62997793  0.74789507  0.62278570     0.08700
C371        C  0.63522732  0.77233842  0.62843915    -0.04400
H372        H  0.61332446  0.73009810  0.60099842     0.09300
H373        H  0.64303170  0.78038534  0.63927324     0.10500
Cu374      Cu  0.60621603  0.77926065  0.58737159     0.44200
Cu375      Cu  0.63148729  0.82221231  0.61959994     0.42000
Cu376      Cu  0.61564858  0.84614495  0.58611202     0.43900
N377        N  0.59550776  0.79416498  0.56942064    -0.33100
N378        N  0.59922556  0.81874270  0.56889744    -0.27300
C379        C  0.59027441  0.82220014  0.55585481    -0.03400
C380        C  0.58056701  0.79875108  0.54774647     0.08800
C381        C  0.58414118  0.78133962  0.55671345     0.02600
H382        H  0.59077083  0.84046221  0.55252058     0.10200
H383        H  0.57881140  0.76084194  0.55429867     0.09300
N384        N  0.62883541  0.86832853  0.60547093    -0.34500
N385        N  0.63400244  0.85945191  0.61778546    -0.26700
C386        C  0.64057447  0.87806845  0.62842721    -0.02000
C387        C  0.63959702  0.89959838  0.62245626     0.06700
C388        C  0.63208021  0.89280658  0.60793136     0.04700
H389        H  0.64529862  0.87587989  0.63970304     0.09800
H390        H  0.62858836  0.90447219  0.59982798     0.08700
O391        O  0.80129405  0.59556409  0.73125475    -0.71400
O392        O  0.75262345  0.59768825  0.76256673    -0.72300
O393        O  0.75221837  0.59634157  0.73118377    -0.61000
O394        O  0.80161883  0.59683263  0.76259220    -0.69400
O395        O  0.82541119  0.64172998  0.76207974    -0.68900
O396        O  0.77583896  0.64123388  0.73050969    -0.60200
O397        O  0.77618203  0.64255203  0.76199996    -0.72700
O398        O  0.82507906  0.64042339  0.73060660    -0.71500
Cu399      Cu  0.77612689  0.59507722  0.74691727     1.04600
Cu400      Cu  0.80146911  0.64309083  0.74627206     1.04300
C401        C  0.82090627  0.61761061  0.72609661     0.94800
C402        C  0.75668532  0.62039303  0.76716373     0.94000
C403        C  0.75620332  0.61866452  0.72596178     0.86100
C404        C  0.82126733  0.61927224  0.76722185     0.92400
O405        O  0.77910595  0.14996661  0.73773453    -0.71400
O406        O  0.82634515  0.20279825  0.76938011    -0.72300
O407        O  0.77714806  0.15121473  0.76913196    -0.61000
O408        O  0.82819932  0.20147350  0.73793699    -0.69400
O409        O  0.80442360  0.22181801  0.73664657    -0.68900
O410        O  0.75356433  0.17174362  0.76765603    -0.60200
O411        O  0.80260365  0.22313352  0.76795626    -0.72700
O412        O  0.75558740  0.17054755  0.73638203    -0.71500
Cu413      Cu  0.80355354  0.17563672  0.75361473     1.04600
Cu414      Cu  0.77824103  0.19751168  0.75212417     1.04300
C415        C  0.75991086  0.15203156  0.73212196     0.94800
C416        C  0.82196060  0.22134591  0.77354371     0.94000
C417        C  0.75723719  0.15351863  0.77316735     0.86100
C418        C  0.82420338  0.21950722  0.73240831     0.92400
O419        O  0.38267064  0.17890000  0.76656589    -0.71400
O420        O  0.37923205  0.22296048  0.73294785    -0.72300
O421        O  0.37934130  0.22650460  0.76413443    -0.61000
O422        O  0.38267140  0.17537724  0.73533206    -0.69400
O423        O  0.33782858  0.15005774  0.73544620    -0.68900
O424        O  0.33449694  0.20126999  0.76434511    -0.60200
O425        O  0.33439255  0.19767752  0.73311365    -0.72700
O426        O  0.33784392  0.15352859  0.76673460    -0.71500
Cu427      Cu  0.38253707  0.20180423  0.74973714     1.04600
Cu428      Cu  0.33456034  0.17472594  0.74990871     1.04300
C429        C  0.36083115  0.15918534  0.77183139     0.94800
C430        C  0.35625518  0.21746119  0.72792080     0.94000
C431        C  0.35645348  0.22207839  0.76863631     0.86100
C432        C  0.36078381  0.15460251  0.73097109     0.92400
N433        N  0.30745831  0.32540897  0.84112621    -0.25700
N434        N  0.32238157  0.34403714  0.85101664    -0.33600
C435        C  0.30633602  0.34949773  0.85917337     0.02600
C436        C  0.28012174  0.33363972  0.85420744     0.08700
C437        C  0.28142571  0.31854849  0.84276219    -0.04400
H438        H  0.31330794  0.36409055  0.86802717     0.09300
H439        H  0.26479568  0.30380753  0.83609479     0.10500
Cu440      Cu  0.36410377  0.36190550  0.85298947     0.44200
Cu441      Cu  0.32384635  0.31068069  0.82590949     0.42000
Cu442      Cu  0.39785964  0.34343533  0.82644434     0.43900
N443        N  0.40574735  0.37804181  0.85295627    -0.33100
N444        N  0.41829291  0.37175544  0.84298996    -0.27300
C445        C  0.44477158  0.38426896  0.84641875    -0.03400
C446        C  0.44908875  0.39916873  0.85913035     0.08800
C447        C  0.42387359  0.39457549  0.86302998     0.02600
H448        H  0.45947578  0.38140772  0.84062827     0.10200
H449        H  0.41887247  0.40166187  0.87285605     0.09300
N450        N  0.37252020  0.31150092  0.81261046    -0.34500
N451        N  0.34581213  0.29949825  0.81246743    -0.26700
C452        C  0.33574228  0.27867273  0.80292495    -0.02000
C453        C  0.35709321  0.27759193  0.79683734     0.06700
C454        C  0.38006565  0.29861725  0.80318218     0.04700
H455        H  0.31443605  0.26494389  0.80087295     0.09800
H456        H  0.40071176  0.30373109  0.80140717     0.08700
N457        N  0.90544770  0.30011081  0.82001199    -0.25700
N458        N  0.89260657  0.31352186  0.81848272    -0.33600
C459        C  0.87229372  0.30032459  0.80870127     0.02600
C460        C  0.87234675  0.27761235  0.80391654     0.08700
C461        C  0.89356741  0.27810618  0.81128285    -0.04400
H462        H  0.85833848  0.30664683  0.80544900     0.09300
H463        H  0.89986702  0.26346183  0.81042841     0.10500
Cu464      Cu  0.90189705  0.34832416  0.83043877     0.44200
Cu465      Cu  0.93844328  0.31142574  0.83404027     0.42000
Cu466      Cu  0.95342229  0.36611236  0.85811924     0.43900
N467        N  0.91211783  0.37854299  0.84623212    -0.33100
N468        N  0.93063948  0.38429914  0.85647549    -0.27300
C469        C  0.93050380  0.40180598  0.86614436    -0.03400
C470        C  0.91116636  0.40769657  0.86179578     0.08800
C471        C  0.89977908  0.39252425  0.84914266     0.02600
H472        H  0.94242825  0.40844624  0.87613579     0.10200
H473        H  0.88250541  0.39028751  0.84317282     0.09300
N474        N  0.97540927  0.34699186  0.85814779    -0.34500
N475        N  0.97034833  0.32688187  0.84919941    -0.26700
C476        C  0.98906620  0.31988171  0.85151919    -0.02000
C477        C  0.00651731  0.33644547  0.86244739     0.06700
C478        C  0.99726846  0.35331455  0.86638613     0.04700
H479        H  0.99018031  0.30431496  0.84552373     0.09800
H480        H  0.00612185  0.36944435  0.87441055     0.08700
N481        N  0.18481387  0.34278492  0.88055195    -0.25700
N482        N  0.20250408  0.35261066  0.89148694    -0.33600
C483        C  0.22429315  0.35113555  0.88784681     0.02600
C484        C  0.22012875  0.33981477  0.87400486     0.08700
C485        C  0.19495687  0.33476185  0.86964516    -0.04400
H486        H  0.24196980  0.35803062  0.89473535     0.09300
H487        H  0.18490561  0.32623538  0.85927647     0.10500
Cu488      Cu  0.19654333  0.36779294  0.91091119     0.44200
Cu489      Cu  0.14817599  0.34185500  0.88093346     0.42000
Cu490      Cu  0.13470023  0.36916504  0.91376967     0.43900
N491        N  0.18551860  0.38041344  0.92963717    -0.33100
N492        N  0.16286384  0.38076538  0.93074848    -0.27300
C493        C  0.16156996  0.38954436  0.94427993    -0.03400
C494        C  0.18458169  0.39501237  0.95205230     0.08800
C495        C  0.19923931  0.38898103  0.94240622     0.02600
H496        H  0.14505957  0.39173296  0.94808830     0.10200
H497        H  0.21851527  0.39068944  0.94452028     0.09300
N498        N  0.10947007  0.35561586  0.89537480    -0.34500
N499        N  0.11416506  0.34534042  0.88351642    -0.26700
C500        C  0.09392264  0.33821045  0.87378603    -0.02000
C501        C  0.07572564  0.34428941  0.87982071     0.06700
C502        C  0.08617258  0.35534203  0.89346866     0.04700
H503        H  0.09260985  0.32931529  0.86310951     0.09800
H504        H  0.07747221  0.36258012  0.90145237     0.08700
N505        N  0.57264416  0.10786857  0.89669652    -0.35000
N506        N  0.52967764  0.09015341  0.87452477    -0.55600
N507        N  0.50304766  0.11075318  0.89309748    -0.35000
N508        N  0.54732140  0.13105940  0.91432766    -0.55600
C509        C  0.58289881  0.09971759  0.88584231     0.28600
C510        C  0.59291030  0.12270342  0.90635575     0.28600
C511        C  0.48746239  0.10419014  0.88085259     0.28600
C512        C  0.49686490  0.12589241  0.90175824     0.28600
C513        C  0.54287963  0.07847569  0.86885981     0.37200
C514        C  0.50623705  0.08017098  0.86690400     0.37200
C515        C  0.56816920  0.13662809  0.92340410     0.37200
C516        C  0.53093206  0.13720560  0.92179168     0.37200
C517        C  0.60988051  0.10896142  0.88882150    -0.20300
C518        C  0.61620909  0.12350319  0.90169311    -0.20300
C519        C  0.47088755  0.11497581  0.88188216    -0.20300
C520        C  0.47685032  0.12867479  0.89500040    -0.20300
C521        C  0.52802679  0.06148049  0.85735550    -0.21400
C522        C  0.50485224  0.06255408  0.85612315    -0.21400
C523        C  0.56506313  0.14649312  0.93670683    -0.21400
C524        C  0.54145577  0.14677928  0.93570378    -0.21400
C525        C  0.56853273  0.08351691  0.87352983    -0.16700
C526        C  0.59092702  0.13483863  0.91950181    -0.16700
C527        C  0.50784073  0.13638814  0.91584921    -0.16700
C528        C  0.48643032  0.08733459  0.86920602    -0.16700
H529        H  0.62368993  0.10570135  0.88235962     0.16200
H530        H  0.63577742  0.13343288  0.90703258     0.16200
H531        H  0.45582051  0.11306911  0.87407846     0.16200
H532        H  0.46729072  0.13928859  0.89913326     0.16200
H533        H  0.53331097  0.04951388  0.85055521     0.14500
H534        H  0.48882937  0.05162572  0.84818426     0.14500
H535        H  0.57858914  0.15315210  0.94608425     0.14500
H536        H  0.53328575  0.15378455  0.94414081     0.14500
H537        H  0.55239526  0.10150148  0.89810170     0.27700
H538        H  0.51491028  0.10282624  0.89611506     0.27700
N539        N  0.69562949  0.19702408  0.95840976    -0.25700
N540        N  0.70159028  0.21383481  0.94715500    -0.33600
C541        C  0.68101153  0.20305771  0.93748067     0.02600
C542        C  0.66112707  0.17836501  0.94285964     0.08700
C543        C  0.67091604  0.17502534  0.95614058    -0.04400
H544        H  0.68043931  0.21272471  0.92736192     0.09300
H545        H  0.66075104  0.15811370  0.96367122     0.10500
Cu546      Cu  0.73675440  0.25134582  0.94533544     0.44200
Cu547      Cu  0.72133643  0.20566045  0.97649196     0.42000
Cu548      Cu  0.78489269  0.27069830  0.97448794     0.43900
N549        N  0.77283878  0.28823950  0.94576795    -0.33100
N550        N  0.79077145  0.29525296  0.95648309    -0.27300
C551        C  0.81188976  0.32020740  0.95375216    -0.03400
C552        C  0.80686678  0.32920533  0.94071836     0.08800
C553        C  0.78201900  0.30856573  0.93591295     0.02600
H554        H  0.82944960  0.33098491  0.96077426     0.10200
H555        H  0.77137480  0.30832123  0.92602984     0.09300
N556        N  0.77356749  0.24444916  0.99225534    -0.34500
N557        N  0.75065619  0.22087832  0.99310631    -0.26700
C558        C  0.74957748  0.20958641  0.00630769    -0.02000
C559        C  0.77291356  0.22696705  0.01410454     0.06700
C560        C  0.78754364  0.24879347  0.00483961     0.04700
H561        H  0.73282933  0.19037225  0.00998042     0.09800
H562        H  0.80690239  0.26671435  0.00712781     0.08700
N563        N  0.67928120  0.06785909  0.81887005    -0.25700
N564        N  0.66745507  0.08233222  0.81846843    -0.33600
C565        C  0.68087496  0.10300642  0.80895434     0.02600
C566        C  0.70210901  0.10144198  0.80316006     0.08700
C567        C  0.70059489  0.07902740  0.80963285    -0.04400
H568        H  0.67578829  0.11825886  0.80663586     0.09300
H569        H  0.71407763  0.07149231  0.80786646     0.10500
Cu570      Cu  0.63497149  0.07485491  0.83166210     0.44200
Cu571      Cu  0.66631423  0.03375192  0.83209811     0.42000
Cu572      Cu  0.61332500  0.02039615  0.85800297     0.43900
N573        N  0.60753090  0.06736457  0.84841316    -0.33100
N574        N  0.60021618  0.04796723  0.85833798    -0.27300
C575        C  0.58454758  0.05019924  0.86853571    -0.03400
C576        C  0.58168821  0.07183081  0.86473672     0.08800
C577        C  0.59656750  0.08229962  0.85196059     0.02600
H578        H  0.57648208  0.03752567  0.87822142     0.10200
H579        H  0.60017714  0.10018485  0.84606902     0.09300
N580        N  0.62967203  0.99572968  0.85575870    -0.34500
N581        N  0.64913316  0.00056302  0.84631754    -0.26700
C582        C  0.65546041  0.98120795  0.84782097    -0.02000
C583        C  0.63917313  0.96345000  0.85871251     0.06700
C584        C  0.62311477  0.97321918  0.86350030     0.04700
H585        H  0.67095433  0.98034294  0.84157958     0.09800
H586        H  0.60800206  0.96479737  0.87211495     0.08700
N587        N  0.65127166  0.66299369  0.84282684    -0.25700
N588        N  0.62836015  0.64699303  0.84990309    -0.33600
C589        C  0.62085878  0.66225275  0.85729531     0.02600
C590        C  0.63988792  0.68909117  0.85478773     0.08700
C591        C  0.65894770  0.68894497  0.84560828    -0.04400
H592        H  0.60303014  0.65434086  0.86415773     0.09300
H593        H  0.67707898  0.70635224  0.84132605     0.10500
Cu594      Cu  0.60852278  0.60501560  0.84989620     0.44200
Cu595      Cu  0.67050723  0.64840931  0.82944135     0.42000
Cu596      Cu  0.63518713  0.57461716  0.82628260     0.43900
N597        N  0.59404583  0.56373862  0.84994655    -0.33100
N598        N  0.60380780  0.55237570  0.84130191    -0.27300
C599        C  0.59244448  0.52611839  0.84512815    -0.03400
C600        C  0.57459890  0.52071997  0.85667141     0.08800
C601        C  0.57629024  0.54509560  0.85946446     0.02600
H602        H  0.59806238  0.51243077  0.84053444     0.10200
H603        H  0.56667092  0.54937134  0.86839948     0.09300
N604        N  0.66929768  0.60130684  0.81387196    -0.34500
N605        N  0.68261108  0.62795660  0.81528520    -0.26700
C606        C  0.70400263  0.63884950  0.80603382    -0.02000
C607        C  0.70405728  0.61810671  0.79844415     0.06700
C608        C  0.68181257  0.59465141  0.80366221     0.04700
H609        H  0.71839422  0.66027463  0.80490335     0.09800
H610        H  0.67529668  0.57418475  0.80037140     0.08700
N611        N  0.63651045  0.78764437  0.88098802    -0.25700
N612        N  0.63114779  0.77295781  0.89313024    -0.33600
C613        C  0.63164455  0.75043614  0.88999974     0.02600
C614        C  0.63759627  0.75098710  0.87522089     0.08700
C615        C  0.64053364  0.77477596  0.86980446    -0.04400
H616        H  0.62754713  0.73463632  0.89786355     0.09300
H617        H  0.64494373  0.78205969  0.85855667     0.10500
Cu618      Cu  0.62177402  0.78325352  0.91327165     0.44200
Cu619      Cu  0.63729258  0.82418776  0.88015050     0.42000
Cu620      Cu  0.61843803  0.84425432  0.91381690     0.43900
N621        N  0.60893985  0.79558926  0.93142609    -0.33100
N622        N  0.60738061  0.81765188  0.93159644    -0.27300
C623        C  0.59660350  0.81883705  0.94452893    -0.03400
C624        C  0.59108217  0.79638396  0.95289571     0.08800
C625        C  0.59926791  0.78221569  0.94423971     0.02600
H626        H  0.59253983  0.83456729  0.94740305     0.10200
H627        H  0.59755682  0.76310617  0.94689095     0.09300
N628        N  0.62919673  0.86682474  0.89438224    -0.34500
N629        N  0.63601568  0.85954128  0.88207759    -0.26700
C630        C  0.64096228  0.87801364  0.87150360    -0.02000
C631        C  0.63707666  0.89776714  0.87747510     0.06700
C632        C  0.62964030  0.89008103  0.89195575     0.04700
H633        H  0.64653768  0.87688721  0.86026360     0.09800
H634        H  0.62447488  0.90037344  0.90007509     0.08700
N635        N  0.87839506  0.41807840  0.89492565    -0.35000
N636        N  0.85733956  0.44440305  0.91374822    -0.55600
N637        N  0.87710592  0.48880704  0.89293238    -0.35000
N638        N  0.89541218  0.46100992  0.87313273    -0.55600
C639        C  0.86348327  0.39780106  0.90458055     0.28600
C640        C  0.88515639  0.40738125  0.88363585     0.28600
C641        C  0.86238135  0.49510172  0.90193161     0.28600
C642        C  0.88308743  0.50426668  0.88065941     0.28600
C643        C  0.85153619  0.42306817  0.92247364     0.37200
C644        C  0.85146591  0.46059275  0.92161475     0.37200
C645        C  0.90591161  0.44730962  0.86667914     0.37200
C646        C  0.90517765  0.48450363  0.86561278     0.37200
C647        C  0.86145838  0.37414076  0.89954620    -0.20300
C648        C  0.87515668  0.38019093  0.88640289    -0.20300
C649        C  0.85956028  0.51526661  0.89540946    -0.20300
C650        C  0.87264548  0.52109078  0.88205855    -0.20300
C651        C  0.84212616  0.42582527  0.93602521    -0.21400
C652        C  0.84212375  0.44959384  0.93548974    -0.21400
C653        C  0.92205713  0.46196702  0.85485268    -0.21400
C654        C  0.92159832  0.48551351  0.85417570    -0.21400
C655        C  0.85195237  0.39988616  0.91793124    -0.16700
C656        C  0.90044564  0.42137048  0.87097916    -0.16700
C657        C  0.89862895  0.50457599  0.86846078    -0.16700
C658        C  0.85177431  0.48361044  0.91596721    -0.16700
H659        H  0.85110130  0.35444259  0.90476496     0.16200
H660        H  0.87715195  0.36598912  0.87956578     0.16200
H661        H  0.84913340  0.52484100  0.89979595     0.16200
H662        H  0.87415803  0.53601170  0.87424553     0.16200
H663        H  0.83530192  0.41181728  0.94520944     0.14500
H664        H  0.83525983  0.45745529  0.94416833     0.14500
H665        H  0.93296106  0.45626348  0.84745366     0.14500
H666        H  0.93205237  0.50148838  0.84612407     0.14500
H667        H  0.88539858  0.43840262  0.89652824     0.27700
H668        H  0.88483261  0.47660035  0.89552810     0.27700
N669        N  0.68842317  0.51511109  0.95374076    -0.25700
N670        N  0.69604506  0.50520042  0.94291419    -0.33600
C671        C  0.67671105  0.49488534  0.93250100     0.02600
C672        C  0.65595751  0.49847431  0.93695824     0.08700
C673        C  0.66386828  0.51127213  0.95047871    -0.04400
H674        H  0.67785908  0.48573020  0.92235305     0.09300
H675        H  0.65282517  0.51761996  0.95733137     0.10500
Cu676      Cu  0.73279115  0.50692122  0.94237327     0.44200
Cu677      Cu  0.71285489  0.53434755  0.97200003     0.42000
Cu678      Cu  0.77971675  0.54079223  0.97224454     0.43900
N679        N  0.77075205  0.51133332  0.94330983    -0.33100
N680        N  0.78821788  0.52372524  0.95414302    -0.27300
C681        C  0.81065671  0.52267031  0.95139683    -0.03400
C682        C  0.80694982  0.50902547  0.93824071     0.08800
C683        C  0.78149506  0.50213856  0.93344854     0.02600
H684        H  0.82817959  0.53092281  0.95851704     0.10200
H685        H  0.77134957  0.49097845  0.92358979     0.09300
N686        N  0.76545277  0.55538368  0.98898666    -0.34500
N687        N  0.74141116  0.55309569  0.98874380    -0.26700
C688        C  0.73824585  0.56388401  0.00116145    -0.02000
C689        C  0.76117071  0.57330611  0.00976439     0.06700
C690        C  0.77808297  0.56764106  0.00165832     0.04700
H691        H  0.72023201  0.56431491  0.00389517     0.09800
H692        H  0.79791294  0.57168804  0.00479460     0.08700
N693        N  0.54198663  0.43094313  0.90937961    -0.35000
N694        N  0.56774604  0.47760766  0.88949820    -0.55600
N695        N  0.52027737  0.45170049  0.87040695    -0.35000
N696        N  0.49344726  0.40633733  0.89130711    -0.55600
C697        C  0.56383499  0.44809894  0.91752638     0.28600
C698        C  0.52494062  0.41020079  0.91827942     0.28600
C699        C  0.53414069  0.47640265  0.86390849     0.28600
C700        C  0.49485045  0.43867557  0.86482865     0.28600
C701        C  0.58889926  0.48419148  0.89857308     0.37200
C702        C  0.57747156  0.49523259  0.87806222     0.37200
C703        C  0.48677077  0.38540564  0.90061544     0.37200
C704        C  0.47491488  0.39662618  0.88033653     0.37200
C705        C  0.56067773  0.43803202  0.93176881    -0.20300
C706        C  0.53618617  0.41413283  0.93223262    -0.20300
C707        C  0.51741024  0.47886086  0.85384068    -0.20300
C708        C  0.49268540  0.45512132  0.85442139    -0.20300
C709        C  0.61212866  0.50632825  0.89295935    -0.21400
C710        C  0.60489533  0.51336340  0.88002436    -0.21400
C711        C  0.46367184  0.36241994  0.89564512    -0.21400
C712        C  0.45613967  0.36951903  0.88284826    -0.21400
C713        C  0.58733615  0.47152771  0.91224403    -0.16700
C714        C  0.50041275  0.38699538  0.91390197    -0.16700
C715        C  0.47389556  0.41196160  0.86837497    -0.16700
C716        C  0.56173124  0.49635984  0.86636033    -0.16700
H717        H  0.57473717  0.44680105  0.94085685     0.16200
H718        H  0.52775886  0.40099425  0.94173316     0.16200
H719        H  0.52249629  0.49593761  0.84673831     0.16200
H720        H  0.47513571  0.45047187  0.84785751     0.16200
H721        H  0.63215071  0.51658746  0.89777368     0.14500
H722        H  0.61832012  0.53010750  0.87296217     0.14500
H723        H  0.45322130  0.34261693  0.90074451     0.14500
H724        H  0.43879826  0.35616336  0.87614995     0.14500
H725        H  0.54039655  0.43161523  0.89803377     0.27700
H726        H  0.52837785  0.44320272  0.87718018     0.27700
N727        N  0.45566500  0.28420701  0.95471900    -0.25700
N728        N  0.46198235  0.27581896  0.94264394    -0.33600
C729        C  0.47118452  0.29537361  0.93233436     0.02600
C730        C  0.47069656  0.31716555  0.93809596     0.08700
C731        C  0.46078537  0.30954626  0.95231225    -0.04400
H732        H  0.47828749  0.29400507  0.92152593     0.09300
H733        H  0.45792079  0.32162920  0.96036626     0.10500
Cu734      Cu  0.46023412  0.23919728  0.94063104     0.44200
Cu735      Cu  0.44120251  0.26057588  0.97399164     0.42000
Cu736      Cu  0.44071547  0.19671315  0.97229147     0.43900
N737        N  0.46286822  0.20476083  0.94159742    -0.33100
N738        N  0.45610997  0.18916435  0.95342322    -0.27300
C739        C  0.46239727  0.16997650  0.95117800    -0.03400
C740        C  0.47357709  0.17381184  0.93726945     0.08800
C741        C  0.47357304  0.19595297  0.93149109     0.02600
H742        H  0.45981859  0.15496215  0.95923208     0.10200
H743        H  0.48168557  0.20559275  0.92096147     0.09300
N744        N  0.42719955  0.20882185  0.99023354    -0.34500
N745        N  0.42738157  0.23180708  0.99112160    -0.26700
C746        C  0.41754547  0.23289100  0.00444769    -0.02000
C747        C  0.41091008  0.20945377  0.01223738     0.06700
C748        C  0.41732108  0.19482577  0.00283904     0.04700
H749        H  0.41554270  0.24955383  0.00816797     0.09800
H750        H  0.41511169  0.17535635  0.00504920     0.08700
N751        N  0.97104484  0.66863121  0.84180775    -0.25700
N752        N  0.97732142  0.65395924  0.85024784    -0.33600
C753        C  0.00013099  0.67041807  0.85771874     0.02600
C754        C  0.00869413  0.69673185  0.85377945     0.08700
C755        C  0.98983979  0.69500098  0.84368172    -0.04400
H756        H  0.00982907  0.66367456  0.86538864     0.09300
H757        H  0.98985253  0.71156460  0.83806150     0.10500
Cu758      Cu  0.95471990  0.61218036  0.85098951     0.44200
Cu759      Cu  0.93725179  0.65080650  0.82808322     0.42000
Cu760      Cu  0.89752913  0.57586784  0.82664418     0.43900
N761        N  0.92986124  0.57056589  0.85108200    -0.33100
N762        N  0.90900236  0.55690246  0.84215911    -0.27300
C763        C  0.89572250  0.53065642  0.84621295    -0.03400
C764        C  0.90899357  0.52786162  0.85821303     0.08800
C765        C  0.93038181  0.55355350  0.86102119     0.02600
H766        H  0.87672894  0.51519712  0.84154149     0.10200
H767        H  0.94418124  0.55974299  0.87025627     0.09300
N768        N  0.88941175  0.60124057  0.81408272    -0.34500
N769        N  0.90344738  0.62800258  0.81480800    -0.26700
C770        C  0.89256208  0.63796460  0.80546442    -0.02000
C771        C  0.87077615  0.61656553  0.79856136     0.06700
C772        C  0.86926194  0.59358597  0.80422781     0.04700
H773        H  0.90007998  0.65924815  0.80378902     0.09800
H774        H  0.85462568  0.57284452  0.80141774     0.08700
N775        N  0.31961721  0.01414717  0.84898846    -0.25700
N776        N  0.33475545  0.00688883  0.85628560    -0.33600
C777        C  0.31853552  0.98418006  0.86400505     0.02600
C778        C  0.29198929  0.97683834  0.86142818     0.08700
C779        C  0.29335952  0.99622741  0.85187747    -0.04400
H780        H  0.32556277  0.97369374  0.87088695     0.09300
H781        H  0.27654699  0.99710094  0.84723612     0.10500
Cu782      Cu  0.37689323  0.02828191  0.85527149     0.44200
Cu783      Cu  0.33572611  0.04770071  0.83503009     0.42000
Cu784      Cu  0.40949584  0.08655606  0.83103679     0.43900
N785        N  0.41872061  0.05375796  0.85376139    -0.33100
N786        N  0.43081102  0.07510867  0.84497407    -0.27300
C787        C  0.45748934  0.08905032  0.84808956    -0.03400
C788        C  0.46242097  0.07578359  0.85933211     0.08800
C789        C  0.43733074  0.05361181  0.86265328     0.02600
H790        H  0.47179880  0.10864550  0.84349586     0.10200
H791        H  0.43262121  0.03974503  0.87176611     0.09300
N792        N  0.38317779  0.09463800  0.81931424    -0.34500
N793        N  0.35654832  0.08074600  0.82089823    -0.26700
C794        C  0.34567284  0.09111336  0.81179504    -0.02000
C795        C  0.36638639  0.11248225  0.80415630     0.06700
C796        C  0.38985995  0.11418438  0.80914958     0.04700
H797        H  0.32424912  0.08348781  0.81074251     0.09800
H798        H  0.41028973  0.12848265  0.80561639     0.08700
N799        N  0.18826915  0.86958405  0.88173573    -0.25700
N800        N  0.20306694  0.87441546  0.89377815    -0.33600
C801        C  0.22638323  0.89822308  0.89226222     0.02600
C802        C  0.22632814  0.90900016  0.87867710     0.08700
C803        C  0.20191173  0.89040270  0.87225396    -0.04400
H804        H  0.24250996  0.90668749  0.90031986     0.09300
H805        H  0.19493542  0.89152069  0.86134618     0.10500
Cu806      Cu  0.19219913  0.84810078  0.91161745     0.44200
Cu807      Cu  0.15102135  0.83374408  0.87851023     0.42000
Cu808      Cu  0.13019278  0.78493632  0.90907431     0.43900
N809        N  0.17875172  0.81894171  0.92814215    -0.33100
N810        N  0.15582856  0.79548021  0.92722241    -0.27300
C811        C  0.15308811  0.78074833  0.93935715    -0.03400
C812        C  0.17536714  0.79562045  0.94836440     0.08800
C813        C  0.19121192  0.81981099  0.94087016     0.02600
H814        H  0.13625505  0.76053446  0.94140547     0.10200
H815        H  0.21053057  0.83671857  0.94424974     0.09300
N816        N  0.10821121  0.77822787  0.88969695    -0.34500
N817        N  0.11553389  0.79552840  0.87856026    -0.26700
C818        C  0.09672916  0.78421850  0.86781478    -0.02000
C819        C  0.07677010  0.75879431  0.87250474     0.06700
C820        C  0.08468553  0.75566401  0.88635278     0.04700
H821        H  0.09760411  0.79374473  0.85737202     0.09800
H822        H  0.07421161  0.73816180  0.89347205     0.08700
N823        N  0.97442040  0.32807630  0.33528134    -0.25700
N824        N  0.96801200  0.34419583  0.34215139    -0.33600
C825        C  0.94522882  0.32914564  0.34994909     0.02600
C826        C  0.93690249  0.30231188  0.34795321     0.08700
C827        C  0.95577826  0.30220301  0.33860578    -0.04400
H828        H  0.93624033  0.33723955  0.35717809     0.09300
H829        H  0.95657331  0.28477362  0.33501062     0.10500
Cu830      Cu  0.99261659  0.38587860  0.34299977     0.44200
Cu831      Cu  0.00985211  0.34278213  0.32301300     0.42000
Cu832      Cu  0.05812692  0.41591019  0.32654868     0.43900
N833        N  0.02279541  0.42556486  0.34685884    -0.33100
N834        N  0.04718050  0.43664701  0.34097426    -0.27300
C835        C  0.06313687  0.46115246  0.34705305    -0.03400
C836        C  0.04799501  0.46567796  0.35719078     0.08800
C837        C  0.02256383  0.44265203  0.35683722     0.02600
H838        H  0.08455418  0.47400892  0.34492757     0.10200
H839        H  0.00570468  0.43793088  0.36399361     0.09300
N840        N  0.06445443  0.38996350  0.31357167    -0.34500
N841        N  0.04713934  0.36364382  0.31230098    -0.26700
C842        C  0.05759367  0.35314470  0.30306784    -0.02000
C843        C  0.08255984  0.37379103  0.29838022     0.06700
C844        C  0.08631950  0.39682117  0.30519363     0.04700
H845        H  0.04764843  0.33208526  0.29993612     0.09800
H846        H  0.10357189  0.41711094  0.30408593     0.08700
N847        N  0.64436855  0.98301580  0.34729931    -0.25700
N848        N  0.62795319  0.98854962  0.35457480    -0.33600
C849        C  0.64267919  0.01191828  0.36190679     0.02600
C850        C  0.66961158  0.02158323  0.35911361     0.08700
C851        C  0.67010985  0.00287226  0.34983488    -0.04400
H852        H  0.63434882  0.02101511  0.36888111     0.09300
H853        H  0.68778838  0.00351783  0.34534536     0.10500
Cu854      Cu  0.58628153  0.96398267  0.35474280     0.44200
Cu855      Cu  0.63045043  0.94857238  0.33428940     0.42000
Cu856      Cu  0.55682550  0.90239292  0.33419702     0.43900
N857        N  0.54535638  0.93555743  0.35508236    -0.33100
N858        N  0.53437349  0.91244382  0.34784157    -0.27300
C859        C  0.50823346  0.89705894  0.35185212    -0.03400
C860        C  0.50253615  0.91141433  0.36194635     0.08800
C861        C  0.52657532  0.93562110  0.36378497     0.02600
H862        H  0.49490578  0.87633816  0.34846152     0.10200
H863        H  0.53065660  0.95117269  0.37175744     0.09300
N864        N  0.58369956  0.89736993  0.32128282    -0.34500
N865        N  0.61029189  0.91383013  0.32135182    -0.26700
C866        C  0.62133833  0.90474266  0.31157671    -0.02000
C867        C  0.60071342  0.88158467  0.30511640     0.06700
C868        C  0.57718784  0.87748412  0.31147479     0.04700
H869        H  0.64273884  0.91443813  0.30925590     0.09800
H870        H  0.55678863  0.86134979  0.30908728     0.08700
N871        N  0.76702097  0.13008421  0.38221911    -0.25700
N872        N  0.75235395  0.12285118  0.39442851    -0.33600
C873        C  0.72984961  0.09855186  0.39227252     0.02600
C874        C  0.73053964  0.09024399  0.37809267     0.08700
C875        C  0.75427939  0.11062724  0.37201463    -0.04400
H876        H  0.71398747  0.08795218  0.40034544     0.09300
H877        H  0.76157068  0.11152450  0.36092355     0.10500
Cu878      Cu  0.76309680  0.14690482  0.41327727     0.44200
Cu879      Cu  0.80307958  0.16660299  0.37949247     0.42000
Cu880      Cu  0.82470739  0.21301800  0.40966834     0.43900
N881        N  0.77848931  0.17600243  0.42991166    -0.33100
N882        N  0.80091170  0.19986428  0.42849839    -0.27300
C883        C  0.80498754  0.21420759  0.44088086    -0.03400
C884        C  0.78413641  0.19886654  0.45057463     0.08800
C885        C  0.76767831  0.17464353  0.44327606     0.02600
H886        H  0.82167197  0.23462005  0.44257809     0.10200
H887        H  0.74904490  0.15743495  0.44722355     0.09300
N888        N  0.84541542  0.22211253  0.38979617    -0.34500
N889        N  0.83752920  0.20487735  0.37870205    -0.26700
C890        C  0.85485507  0.21653929  0.36738161    -0.02000
C891        C  0.87451445  0.24227352  0.37160271     0.06700
C892        C  0.86797028  0.24524639  0.38583708     0.04700
H893        H  0.85308496  0.20706737  0.35683480     0.09800
H894        H  0.87864686  0.26292426  0.39276549     0.08700
N895        N  0.29678130  0.31705821  0.34377772    -0.25700
N896        N  0.31722613  0.33261245  0.35262803    -0.33600
C897        C  0.32318081  0.31697547  0.36089313     0.02600
C898        C  0.30578070  0.29034846  0.35706641     0.08700
C899        C  0.28924849  0.29100979  0.34620354    -0.04400
H900        H  0.33925485  0.32451066  0.36897075     0.09300
H901        H  0.27316108  0.27391926  0.34039646     0.10500
Cu902      Cu  0.33699458  0.37455122  0.35298206     0.44200
Cu903      Cu  0.28062950  0.33250706  0.32870103     0.42000
Cu904      Cu  0.31200071  0.40619981  0.32893923     0.43900
N905        N  0.35367491  0.41613829  0.35198755    -0.33100
N906        N  0.34445327  0.42787777  0.34318798    -0.27300
C907        C  0.35773241  0.45455270  0.34611124    -0.03400
C908        C  0.37634055  0.45985900  0.35720910     0.08800
C909        C  0.37302495  0.43499316  0.36073051     0.02600
H910        H  0.35283101  0.46868587  0.34131539     0.10200
H911        H  0.38257574  0.43065814  0.36971458     0.09300
N912        N  0.27959420  0.38034930  0.31552858    -0.34500
N913        N  0.26831228  0.35372835  0.31525387    -0.26700
C914        C  0.24806031  0.34343532  0.30528934    -0.02000
C915        C  0.24661515  0.36458581  0.29910363     0.06700
C916        C  0.26680887  0.38762193  0.30581872     0.04700
H917        H  0.23528015  0.32215877  0.30281226     0.09800
H918        H  0.27184534  0.40819658  0.30382869     0.08700
N919        N  0.28052705  0.91868529  0.32390305    -0.25700
N920        N  0.29114452  0.90312714  0.32397937    -0.33600
C921        C  0.27868274  0.88360510  0.31381632     0.02600
C922        C  0.25933535  0.88705119  0.30698998     0.08700
C923        C  0.26094614  0.90942010  0.31357627    -0.04400
H924        H  0.28350847  0.86817766  0.31153150     0.09300
H925        H  0.24888195  0.91833119  0.31104452     0.10500
Cu926      Cu  0.32249039  0.90928550  0.33753834     0.44200
Cu927      Cu  0.29363126  0.95180533  0.33794380     0.42000
Cu928      Cu  0.35074440  0.96725692  0.36180709     0.43900
N929        N  0.35427467  0.91926942  0.35165125    -0.33100
N930        N  0.36484693  0.94041996  0.36053068    -0.27300
C931        C  0.38335303  0.93952572  0.36918193    -0.03400
C932        C  0.38446616  0.91683545  0.36547766     0.08800
C933        C  0.36565377  0.90442600  0.35439303     0.02600
H934        H  0.39369561  0.95314679  0.37825041     0.10200
H935        H  0.35924838  0.88498986  0.34946643     0.09300
N936        N  0.33162170  0.98974499  0.36143727    -0.34500
N937        N  0.31076654  0.98399351  0.35283580    -0.26700
C938        C  0.30340363  0.00239251  0.35512511    -0.02000
C939        C  0.32041320  0.02055524  0.36561843     0.06700
C940        C  0.33802984  0.01196737  0.36939604     0.04700
H941        H  0.28709253  0.00270648  0.34942041     0.09800
H942        H  0.35448465  0.02133576  0.37723291     0.08700
N943        N  0.31578755  0.19477657  0.38273738    -0.25700
N944        N  0.32268768  0.21070323  0.39442622    -0.33600
C945        C  0.32061297  0.23230487  0.39113072     0.02600
C946        C  0.31194445  0.22993708  0.37674303     0.08700
C947        C  0.30911210  0.20599610  0.37168657    -0.04400
H948        H  0.32534750  0.24868349  0.39864686     0.09300
H949        H  0.30294935  0.19750514  0.36076627     0.10500
Cu950      Cu  0.33541585  0.20349216  0.41446797     0.44200
Cu951      Cu  0.31662966  0.15883281  0.38231052     0.42000
Cu952      Cu  0.34418352  0.14661354  0.41562713     0.43900
N953        N  0.34923622  0.19323650  0.43310780    -0.33100
N954        N  0.35278861  0.17239380  0.43343941    -0.27300
C955        C  0.36235298  0.17115876  0.44677635    -0.03400
C956        C  0.36496490  0.19231345  0.45529988     0.08800
C957        C  0.35641932  0.20583100  0.44624711     0.02600
H958        H  0.36713054  0.15601147  0.44991846     0.10200
H959        H  0.35572852  0.22369637  0.44897255     0.09300
N960        N  0.33220993  0.12168895  0.39721013    -0.34500
N961        N  0.32173288  0.12558549  0.38512817    -0.26700
C962        C  0.31593500  0.10541843  0.37555547    -0.02000
C963        C  0.32317663  0.08822063  0.38196658     0.06700
C964        C  0.33341532  0.09915359  0.39563663     0.04700
H965        H  0.30729792  0.10353941  0.36471632     0.09800
H966        H  0.34123437  0.09134220  0.40386398     0.08700
N967        N  0.41449534  0.85459109  0.41553765    -0.35000
N968        N  0.38929524  0.87619923  0.39651043    -0.55600
N969        N  0.43621818  0.89910655  0.37691050    -0.35000
N970        N  0.45997139  0.87487715  0.39497690    -0.55600
C971        C  0.38956425  0.84243679  0.42168418     0.28600
C972        C  0.42731727  0.84239302  0.42108049     0.28600
C973        C  0.41998251  0.90511098  0.36910532     0.28600
C974        C  0.45679294  0.90320770  0.36797484     0.28600
C975        C  0.37016751  0.86542864  0.40716527     0.37200
C976        C  0.38239046  0.89030545  0.38743850     0.37200
C977        C  0.46932729  0.86552540  0.40570636     0.37200
C978        C  0.48046008  0.88830322  0.38528025     0.37200
C979        C  0.38685082  0.82282839  0.43159641    -0.20300
C980        C  0.41062889  0.82280347  0.43121828    -0.20300
C981        C  0.43062286  0.91358055  0.35507347    -0.20300
C982        C  0.45377053  0.91228738  0.35434643    -0.20300
C983        C  0.35065586  0.87213535  0.40463270    -0.21400
C984        C  0.35838827  0.88788868  0.39219807    -0.21400
C985        C  0.49580616  0.87282571  0.40274271    -0.21400
C986        C  0.50284142  0.88720063  0.38981977    -0.21400
C987        C  0.36928403  0.84870778  0.41883806    -0.16700
C988        C  0.45379214  0.84868100  0.41750541    -0.16700
C989        C  0.47898230  0.90043239  0.37200691    -0.16700
C990        C  0.39638203  0.90407859  0.37443603    -0.16700
H991        H  0.36945711  0.80970516  0.43834407     0.16200
H992        H  0.41502487  0.80968811  0.43763688     0.16200
H993        H  0.42257845  0.92004857  0.34625159     0.16200
H994        H  0.46700445  0.91767691  0.34489016     0.16200
H995        H  0.33260163  0.86617319  0.41102386     0.14500
H996        H  0.34722250  0.89616813  0.38713448     0.14500
H997        H  0.50861954  0.86795786  0.40911134     0.14500
H998        H  0.52217409  0.89556790  0.38433551     0.14500
H999        H  0.42311901  0.87168240  0.40894079     0.27700
H1000       H  0.43488032  0.89531703  0.38812006     0.27700
N1001       N  0.50019346  0.69499057  0.45319474    -0.25700
N1002       N  0.49201255  0.70284758  0.44161376    -0.33600
C1003       C  0.48271369  0.68349340  0.43128283     0.02600
C1004       C  0.48518833  0.66253058  0.43662597     0.08700
C1005       C  0.49626644  0.67027318  0.45053310    -0.04400
H1006       H  0.47423762  0.68441038  0.42080243     0.09300
H1007       H  0.50071579  0.65871789  0.45822226     0.10500
Cu1008     Cu  0.49215892  0.73861381  0.44057309     0.44200
Cu1009     Cu  0.51560181  0.71834983  0.47204334     0.42000
Cu1010     Cu  0.51686131  0.78225475  0.47229673     0.43900
N1011       N  0.49120002  0.77371654  0.44238154    -0.33100
N1012       N  0.50004508  0.78971837  0.45402886    -0.27300
C1013       C  0.49550828  0.81014576  0.45198427    -0.03400
C1014       C  0.48330032  0.80664266  0.43842682     0.08800
C1015       C  0.48081262  0.78346014  0.43261113     0.02600
H1016       H  0.50034046  0.82603268  0.45986856     0.10200
H1017       H  0.47169952  0.77406246  0.42219720     0.09300
N1018       N  0.53185559  0.76938528  0.48918886    -0.34500
N1019       N  0.53121353  0.74615064  0.48912645    -0.26700
C1020       C  0.54212870  0.74383707  0.50173856    -0.02000
C1021       C  0.54999220  0.76662038  0.51015573     0.06700
C1022       C  0.54320933  0.78245530  0.50184282     0.04700
H1023       H  0.54402277  0.72668676  0.50462230     0.09800
H1024       H  0.54602262  0.80189613  0.50474240     0.08700
N1025       N  0.10272681  0.54609137  0.41381225    -0.35000
N1026       N  0.08190959  0.50265481  0.39218843    -0.55600
N1027       N  0.06566047  0.53326167  0.37324091    -0.35000
N1028       N  0.08606856  0.57643373  0.39499512    -0.55600
C1029       C  0.11431022  0.53216666  0.41868172     0.28600
C1030       C  0.11603470  0.57069813  0.42032397     0.28600
C1031       C  0.05629846  0.51067408  0.36495206     0.28600
C1032       C  0.05890394  0.54987682  0.36636433     0.28600
C1033       C  0.09042447  0.49160750  0.40243623     0.37200
C1034       C  0.06960547  0.48408701  0.38141848     0.37200
C1035       C  0.09585003  0.59363634  0.40651370     0.37200
C1036       C  0.07599384  0.58684363  0.38530301     0.37200
C1037       C  0.13479571  0.54796740  0.42858112    -0.20300
C1038       C  0.13585420  0.57218522  0.42962431    -0.20300
C1039       C  0.04369826  0.51314368  0.35250726    -0.20300
C1040       C  0.04532778  0.53776160  0.35340115    -0.20300
C1041       C  0.08327124  0.46569837  0.39824485    -0.21400
C1042       C  0.07012861  0.46093701  0.38495896    -0.21400
C1043       C  0.09189756  0.61509582  0.40417707    -0.21400
C1044       C  0.07950596  0.61089809  0.39074058    -0.21400
C1045       C  0.10682721  0.50548201  0.41472306    -0.16700
C1046       C  0.11075461  0.59186561  0.41835832    -0.16700
C1047       C  0.06387381  0.57529952  0.37154765    -0.16700
C1048       C  0.05838834  0.48769029  0.36826329    -0.16700
H1049       H  0.14788607  0.54274119  0.43437906     0.16200
H1050       H  0.14991560  0.58912101  0.43635394     0.16200
H1051       H  0.03399988  0.49857336  0.34373747     0.16200
H1052       H  0.03708918  0.54565129  0.34547036     0.16200
H1053       H  0.08767289  0.45192192  0.40396487     0.14500
H1054       H  0.06217577  0.44258756  0.37856678     0.14500
H1055       H  0.09802422  0.63242484  0.41120884     0.14500
H1056       H  0.07402318  0.62429849  0.38554847     0.14500
H1057       H  0.08524440  0.53845895  0.40752175     0.27700
H1058       H  0.07658665  0.53729929  0.38287147     0.27700
N1059       N  0.26604368  0.79103353  0.45894840    -0.25700
N1060       N  0.25974458  0.77263953  0.44859392    -0.33600
C1061       C  0.27969705  0.78200288  0.43859074     0.02600
C1062       C  0.29951970  0.80754266  0.44277179     0.08700
C1063       C  0.29040206  0.81283437  0.45570929    -0.04400
H1064       H  0.27983458  0.77084380  0.42906350     0.09300
H1065       H  0.30083973  0.83087129  0.46238696     0.10500
Cu1066     Cu  0.22474842  0.73538390  0.44824820     0.44200
Cu1067     Cu  0.24133255  0.78399768  0.47729444     0.42000
Cu1068     Cu  0.17872511  0.71670132  0.47810089     0.43900
N1069       N  0.18832423  0.69947587  0.44881047    -0.33100
N1070       N  0.17086140  0.69232441  0.45976342    -0.27300
C1071       C  0.14914411  0.66785503  0.45678690    -0.03400
C1072       C  0.15349565  0.65952720  0.44334788     0.08800
C1073       C  0.17839768  0.67992693  0.43858892     0.02600
H1074       H  0.13172294  0.65695355  0.46389908     0.10200
H1075       H  0.18864827  0.68051809  0.42849179     0.09300
N1076       N  0.19160389  0.74477840  0.49505350    -0.34500
N1077       N  0.21374763  0.76908236  0.49478639    -0.26700
C1078       C  0.21501877  0.78203036  0.50737679    -0.02000
C1079       C  0.19259097  0.76505361  0.51592924     0.06700
C1080       C  0.17837473  0.74165561  0.50777839     0.04700
H1081       H  0.23089884  0.80242638  0.50994054     0.09800
H1082       H  0.15936131  0.72381406  0.51072896     0.08700
N1083       N  0.41259920  0.55025395  0.40879026    -0.35000
N1084       N  0.38518205  0.50420147  0.38932070    -0.55600
N1085       N  0.43206082  0.52874714  0.36971362    -0.35000
N1086       N  0.46011633  0.57399881  0.38991483    -0.55600
C1087       C  0.39102373  0.53357027  0.41723000     0.28600
C1088       C  0.43066724  0.57034917  0.41758088     0.28600
C1089       C  0.41793125  0.50344499  0.36406190     0.28600
C1090       C  0.45752640  0.54082960  0.36420810     0.28600
C1091       C  0.36428263  0.49863776  0.39833913     0.37200
C1092       C  0.37471092  0.48681781  0.37790386     0.37200
C1093       C  0.46723976  0.59503864  0.39909182     0.37200
C1094       C  0.47767065  0.58374388  0.37850626     0.37200
C1095       C  0.39539855  0.54320300  0.43157235    -0.20300
C1096       C  0.42045324  0.56643839  0.43179447    -0.20300
C1097       C  0.43456223  0.49952396  0.35467986    -0.20300
C1098       C  0.45951190  0.52310625  0.35476024    -0.20300
C1099       C  0.34042871  0.47743131  0.39271487    -0.21400
C1100       C  0.34702939  0.46986552  0.37981117    -0.21400
C1101       C  0.48960239  0.61817575  0.39359562    -0.21400
C1102       C  0.49627154  0.61102102  0.38059191    -0.21400
C1103       C  0.36673582  0.51118374  0.41205771    -0.16700
C1104       C  0.45489945  0.59330141  0.41279040    -0.16700
C1105       C  0.47840184  0.56793393  0.36683539    -0.16700
C1106       C  0.39007499  0.48446585  0.36649195    -0.16700
H1107       H  0.38175368  0.53465208  0.44085440     0.16200
H1108       H  0.42983589  0.57929644  0.44127120     0.16200
H1109       H  0.42921463  0.48162524  0.34831132     0.16200
H1110       H  0.47705156  0.52684038  0.34848727     0.16200
H1111       H  0.32044689  0.46802335  0.39754681     0.14500
H1112       H  0.33302104  0.45342524  0.37280247     0.14500
H1113       H  0.50024918  0.63806171  0.39853431     0.14500
H1114       H  0.51314952  0.62440649  0.37361430     0.14500
H1115       H  0.41336319  0.55001729  0.39737486     0.27700
H1116       H  0.42396366  0.53824753  0.37565161     0.27700
N1117       N  0.26589737  0.46885874  0.45319026    -0.25700
N1118       N  0.25856675  0.47927907  0.44245575    -0.33600
C1119       C  0.27808253  0.48989446  0.43216443     0.02600
C1120       C  0.29859758  0.48593644  0.43666874     0.08700
C1121       C  0.29040018  0.47260565  0.45003780    -0.04400
H1122       H  0.27721685  0.49949258  0.42208600     0.09300
H1123       H  0.30118561  0.46583388  0.45685383     0.10500
Cu1124     Cu  0.22210021  0.47799793  0.44208347     0.44200
Cu1125     Cu  0.24119833  0.44937959  0.47110450     0.42000
Cu1126     Cu  0.17550091  0.44647808  0.47205570     0.43900
N1127       N  0.18493027  0.47519576  0.44298063    -0.33100
N1128       N  0.16755006  0.46377922  0.45395466    -0.27300
C1129       C  0.14543411  0.46530362  0.45102401    -0.03400
C1130       C  0.14928121  0.47816411  0.43755524     0.08800
C1131       C  0.17447487  0.48422595  0.43281501     0.02600
H1132       H  0.12795288  0.45764625  0.45813899     0.10200
H1133       H  0.18454565  0.49449735  0.42272167     0.09300
N1134       N  0.18900586  0.43000851  0.48804174    -0.34500
N1135       N  0.21240469  0.43095121  0.48751126    -0.26700
C1136       C  0.21489230  0.41882014  0.49955839    -0.02000
C1137       C  0.19214143  0.40984669  0.50815552     0.06700
C1138       C  0.17607351  0.41724807  0.50053199     0.04700
H1139       H  0.23236119  0.41722747  0.50204827     0.09800
H1140       H  0.15669949  0.41414703  0.50387996     0.08700
N1141       N  0.64611620  0.66098219  0.34485179    -0.25700
N1142       N  0.63017388  0.63851144  0.35232065    -0.33600
C1143       C  0.64552813  0.63107271  0.35972568     0.02600
C1144       C  0.67231892  0.64965973  0.35680372     0.08700
C1145       C  0.67209212  0.66839412  0.34735574    -0.04400
H1146       H  0.63771028  0.61342900  0.36675428     0.09300
H1147       H  0.68944461  0.68605282  0.34264730     0.10500
Cu1148     Cu  0.58812419  0.61853129  0.35252350     0.44200
Cu1149     Cu  0.63160469  0.68026026  0.33148926     0.42000
Cu1150     Cu  0.55785546  0.64715808  0.33050016     0.43900
N1151       N  0.54651396  0.60246295  0.35183637    -0.33100
N1152       N  0.53531587  0.61295212  0.34357143    -0.27300
C1153       C  0.50866917  0.60013908  0.34655647    -0.03400
C1154       C  0.50270639  0.58055750  0.35719988     0.08800
C1155       C  0.52729111  0.58280804  0.36036273     0.02600
H1156       H  0.49510669  0.60629435  0.34234100     0.10200
H1157       H  0.53126673  0.57251416  0.36909541     0.09300
N1158       N  0.58401277  0.68164990  0.31839546    -0.34500
N1159       N  0.61071234  0.69368666  0.31867724    -0.26700
C1160       C  0.62125902  0.71485632  0.30928309    -0.02000
C1161       C  0.60020323  0.71612558  0.30285715     0.06700
C1162       C  0.57693110  0.69487004  0.30886427     0.04700
H1163       H  0.64263178  0.72811579  0.30717431     0.09800
H1164       H  0.55632632  0.68918364  0.30636745     0.08700
N1165       N  0.06071590  0.69834594  0.31935096    -0.25700
N1166       N  0.07603225  0.68740597  0.31969290    -0.33600
C1167       C  0.09654634  0.70063734  0.31003964     0.02600
C1168       C  0.09401563  0.72077561  0.30334896     0.08700
C1169       C  0.07117138  0.71880958  0.30949896    -0.04400
H1170       H  0.11205379  0.69582095  0.30798773     0.09300
H1171       H  0.06259731  0.73115812  0.30690964     0.10500
Cu1172     Cu  0.06851358  0.65468525  0.33312442     0.44200
Cu1173     Cu  0.02556048  0.68463109  0.33185262     0.42000
Cu1174     Cu  0.00885382  0.62820597  0.35584229     0.43900
N1175       N  0.05650207  0.62252220  0.34788321    -0.33100
N1176       N  0.03461547  0.61303121  0.35618265    -0.27300
C1177       C  0.03301055  0.59362139  0.36513297    -0.03400
C1178       C  0.05480911  0.59052525  0.36231873     0.08800
C1179       C  0.06940973  0.60931134  0.35138532     0.02600
H1180       H  0.01788987  0.58350921  0.37362693     0.10200
H1181       H  0.08869658  0.61398460  0.34688011     0.09300
N1182       N  0.98490783  0.64529700  0.35376993    -0.34500
N1183       N  0.99082206  0.66597598  0.34498805    -0.26700
C1184       C  0.97116639  0.67195667  0.34616368    -0.02000
C1185       C  0.95211787  0.65415776  0.35614299     0.06700
C1186       C  0.96145323  0.63760260  0.36075102     0.04700
H1187       H  0.97082472  0.68806791  0.34023450     0.09800
H1188       H  0.95194691  0.62118458  0.36862794     0.08700
N1189       N  0.77077961  0.64205631  0.37932169    -0.25700
N1190       N  0.75576239  0.63366993  0.39142492    -0.33600
C1191       C  0.73320015  0.63461911  0.38918505     0.02600
C1192       C  0.73406056  0.64404734  0.37508120     0.08700
C1193       C  0.75804567  0.64853795  0.36910162    -0.04400
H1194       H  0.71726904  0.62870158  0.39722447     0.09300
H1195       H  0.76562707  0.65580243  0.35811333     0.10500
Cu1196     Cu  0.76568723  0.62093534  0.41069811     0.44200
Cu1197     Cu  0.80794516  0.64428154  0.37690170     0.42000
Cu1198     Cu  0.82916601  0.62412193  0.40934053     0.43900
N1199       N  0.78081414  0.60962319  0.42840005    -0.33100
N1200       N  0.80437458  0.61103054  0.42776462    -0.27300
C1201       C  0.80881613  0.60221904  0.44058181    -0.03400
C1202       C  0.78704927  0.59482001  0.44980076     0.08800
C1203       C  0.76958133  0.59980279  0.44171352     0.02600
H1204       H  0.82653359  0.60100554  0.44296520     0.10200
H1205       H  0.75011076  0.59636897  0.44513181     0.09300
N1206       N  0.85162934  0.63677443  0.39005136    -0.34500
N1207       N  0.84413032  0.64419920  0.37801403    -0.26700
C1208       C  0.86309989  0.65078852  0.36750232    -0.02000
C1209       C  0.88332600  0.64730043  0.37330997     0.06700
C1210       C  0.87539333  0.63840805  0.38756908     0.04700
H1211       H  0.86211891  0.65738113  0.35646308     0.09800
H1212       H  0.88597885  0.63324326  0.39554477     0.08700
O1213       O  0.17627402  0.34508912  0.26231487    -0.71400
O1214       O  0.13076734  0.35296816  0.23114965    -0.72300
O1215       O  0.17807610  0.34947019  0.23094448    -0.61000
O1216       O  0.12866454  0.34870287  0.26254456    -0.69400
O1217       O  0.15410122  0.39342070  0.26419775    -0.68900
O1218       O  0.20335739  0.39418655  0.23279908    -0.60200
O1219       O  0.15623141  0.39767023  0.23290271    -0.72700
O1220       O  0.20152116  0.38980187  0.26402735    -0.71500
Cu1221     Cu  0.15252319  0.34744930  0.24670523     1.04600
Cu1222     Cu  0.17967211  0.39530213  0.24857183     1.04300
C1223       C  0.19615992  0.36628667  0.26797455     0.94800
C1224       C  0.13660846  0.37656551  0.22703941     0.94000
C1225       C  0.19835126  0.37206208  0.22687874     0.86100
C1226       C  0.13358560  0.37101157  0.26823195     0.92400
O1227       O  0.58122527  0.76567856  0.26653464    -0.71400
O1228       O  0.58251516  0.81765508  0.23622250    -0.72300
O1229       O  0.58219176  0.76796377  0.23508449    -0.61000
O1230       O  0.58171955  0.81525569  0.26758444    -0.69400
O1231       O  0.62662902  0.83814875  0.26795263    -0.68900
O1232       O  0.62708792  0.79083485  0.23544706    -0.60200
O1233       O  0.62740555  0.84062151  0.23652956    -0.72700
O1234       O  0.62612386  0.78850336  0.26692968    -0.71500
Cu1235     Cu  0.58035423  0.79082627  0.25133326     1.04600
Cu1236     Cu  0.62839091  0.81530871  0.25171731     1.04300
C1237       C  0.60344807  0.76902103  0.27152940     0.94800
C1238       C  0.60509627  0.83738995  0.23171080     0.94000
C1239       C  0.60472134  0.77196691  0.23019110     0.86100
C1240       C  0.60409436  0.83412752  0.27282370     0.92400
N1241       N  0.98927654  0.34208951  0.15425222    -0.25700
N1242       N  0.98401437  0.35785221  0.14609022    -0.33600
C1243       C  0.96103252  0.34236620  0.13850773     0.02600
C1244       C  0.95142066  0.31569124  0.14215894     0.08700
C1245       C  0.96971298  0.31613188  0.15214905    -0.04400
H1246       H  0.95199909  0.34998753  0.13093600     0.09300
H1247       H  0.96895091  0.29894518  0.15746173     0.10500
Cu1248     Cu  0.00847384  0.39970235  0.14571833     0.44200
Cu1249     Cu  0.02331080  0.35699408  0.16748083     0.42000
Cu1250     Cu  0.07302114  0.42950421  0.16443881     0.43900
N1251       N  0.03660009  0.44091605  0.14574051    -0.33100
N1252       N  0.06069538  0.45189375  0.15199671    -0.27300
C1253       C  0.07521773  0.47822690  0.14813721    -0.03400
C1254       C  0.05932610  0.48417893  0.13925571     0.08800
C1255       C  0.03507020  0.45994052  0.13794197     0.02600
H1256       H  0.09640254  0.49156010  0.15067230     0.10200
H1257       H  0.01851584  0.45586044  0.13067377     0.09300
N1258       N  0.07788385  0.40255958  0.17770459    -0.34500
N1259       N  0.05958965  0.37647636  0.17891944    -0.26700
C1260       C  0.06807117  0.36517924  0.18891166    -0.02000
C1261       C  0.09282663  0.38502652  0.19422130     0.06700
C1262       C  0.09854402  0.40845948  0.18692538     0.04700
H1263       H  0.05675254  0.34417751  0.19226259     0.09800
H1264       H  0.11605282  0.42844072  0.18847498     0.08700
N1265       N  0.65176997  0.99286462  0.15974719    -0.25700
N1266       N  0.63632885  0.99872337  0.15167899    -0.33600
C1267       C  0.65208708  0.02137589  0.14388240     0.02600
C1268       C  0.67870848  0.03026638  0.14715848     0.08700
C1269       C  0.67792701  0.01181058  0.15724754    -0.04400
H1270       H  0.64466173  0.03052467  0.13626044     0.09300
H1271       H  0.69501691  0.01200011  0.16229857     0.10500
Cu1272     Cu  0.59448326  0.97538857  0.15099566     0.44200
Cu1273     Cu  0.63577558  0.95886477  0.17352380     0.42000
Cu1274     Cu  0.56172129  0.91409342  0.17229705     0.43900
N1275       N  0.55312741  0.94829959  0.15030021    -0.33100
N1276       N  0.54087209  0.92544984  0.15789027    -0.27300
C1277       C  0.51466910  0.91119372  0.15377013    -0.03400
C1278       C  0.51026742  0.92595547  0.14321113     0.08800
C1279       C  0.53516139  0.94924993  0.14123974     0.02600
H1280       H  0.50030292  0.89090664  0.15748504     0.10200
H1281       H  0.54025088  0.96483424  0.13305859     0.09300
N1282       N  0.58738542  0.90753556  0.18572936    -0.34500
N1283       N  0.61402988  0.92364582  0.18619507    -0.26700
C1284       C  0.62421409  0.91340225  0.19588207    -0.02000
C1285       C  0.60305047  0.88980633  0.20174737     0.06700
C1286       C  0.58003963  0.88668579  0.19509667     0.04700
H1287       H  0.64547996  0.92239261  0.19838419     0.09800
H1288       H  0.55945393  0.87036298  0.19685840     0.08700
N1289       N  0.77387019  0.13860512  0.12191267    -0.25700
N1290       N  0.75831708  0.12979688  0.11005713    -0.33600
C1291       C  0.73706026  0.10491010  0.11279874     0.02600
C1292       C  0.73938790  0.09774596  0.12702494     0.08700
C1293       C  0.76286472  0.11952150  0.13252478    -0.04400
H1294       H  0.72075237  0.09323104  0.10513329     0.09300
H1295       H  0.77102147  0.12162910  0.14351383     0.10500
Cu1296     Cu  0.76574039  0.15270702  0.09099448     0.44200
Cu1297     Cu  0.80881356  0.17669369  0.12313011     0.42000
Cu1298     Cu  0.82352967  0.22057707  0.09094965     0.43900
N1299       N  0.77555521  0.17952429  0.07348565    -0.33100
N1300       N  0.79652486  0.20452748  0.07347867    -0.27300
C1301       C  0.79706733  0.21653464  0.06061767    -0.03400
C1302       C  0.77533114  0.19809508  0.05212036     0.08800
C1303       C  0.76221480  0.17494114  0.06064971     0.02600
H1304       H  0.81222489  0.23707500  0.05772716     0.10200
H1305       H  0.74423574  0.15606117  0.05772079     0.09300
N1306       N  0.84821162  0.23094052  0.10941101    -0.34500
N1307       N  0.84299722  0.21519744  0.12110045    -0.26700
C1308       C  0.86325302  0.22808908  0.13091053    -0.02000
C1309       C  0.88194890  0.25295422  0.12504162     0.06700
C1310       C  0.87185800  0.25415749  0.11146413     0.04700
H1311       H  0.86424328  0.21995186  0.14149592     0.09800
H1312       H  0.88097802  0.27069053  0.10363986     0.08700
N1313       N  0.31110487  0.33372323  0.15692895    -0.25700
N1314       N  0.33243446  0.34920819  0.14860272    -0.33600
C1315       C  0.33977223  0.33351390  0.14154393     0.02600
C1316       C  0.32224526  0.30699982  0.14566051     0.08700
C1317       C  0.30429667  0.30775652  0.15540470    -0.04400
H1318       H  0.35629081  0.34082664  0.13376490     0.09300
H1319       H  0.28725769  0.29072946  0.16075388     0.10500
Cu1320     Cu  0.34965087  0.39083173  0.14661346     0.44200
Cu1321     Cu  0.29168000  0.34880211  0.16930618     0.42000
Cu1322     Cu  0.31830533  0.42153450  0.16677279     0.43900
N1323       N  0.36254075  0.43173057  0.14530192    -0.33100
N1324       N  0.35119081  0.44303204  0.15269766    -0.27300
C1325       C  0.36274643  0.46909369  0.14853193    -0.03400
C1326       C  0.38235104  0.47445966  0.13806210     0.08800
C1327       C  0.38152510  0.45027299  0.13622105     0.02600
H1328       H  0.35619095  0.48265669  0.15213065     0.10200
H1329       H  0.39274323  0.44604679  0.12822774     0.09300
N1330       N  0.28502877  0.39487059  0.17951394    -0.34500
N1331       N  0.27547448  0.36855725  0.18035732    -0.26700
C1332       C  0.25439105  0.35725922  0.18971670    -0.02000
C1333       C  0.25053666  0.37738568  0.19497413     0.06700
C1334       C  0.27020162  0.40096827  0.18834906     0.04700
H1335       H  0.24309556  0.33605974  0.19267420     0.09800
H1336       H  0.27381630  0.42111848  0.19002451     0.08700
N1337       N  0.29049082  0.93304601  0.18711293    -0.25700
N1338       N  0.30220559  0.91844981  0.18761065    -0.33600
C1339       C  0.28924343  0.89846873  0.19759981     0.02600
C1340       C  0.26836221  0.90045525  0.20362971     0.08700
C1341       C  0.26969651  0.92256172  0.19675687    -0.04400
H1342       H  0.29424272  0.88318658  0.20001199     0.09300
H1343       H  0.25627430  0.93019441  0.19844500     0.10500
Cu1344     Cu  0.33418451  0.92476793  0.17399345     0.44200
Cu1345     Cu  0.30310405  0.96650011  0.17314884     0.42000
Cu1346     Cu  0.36203145  0.98381744  0.15090352     0.43900
N1347       N  0.36417084  0.93399364  0.15823901    -0.33100
N1348       N  0.37455766  0.95602241  0.14997085    -0.27300
C1349       C  0.39159924  0.95546865  0.14008166    -0.03400
C1350       C  0.39200117  0.93193912  0.14214528     0.08800
C1351       C  0.37433674  0.91874861  0.15374236     0.02600
H1352       H  0.40163038  0.97024337  0.13140454     0.10200
H1353       H  0.36820821  0.89888655  0.15802339     0.09300
N1354       N  0.34377660  0.00675367  0.15139844    -0.34500
N1355       N  0.32188294  0.00033612  0.15919045    -0.26700
C1356       C  0.31478535  0.01887913  0.15650930    -0.02000
C1357       C  0.33315293  0.03771445  0.14662149     0.06700
C1358       C  0.35119089  0.02942434  0.14362541     0.04700
H1359       H  0.29747532  0.01855316  0.16131230     0.09800
H1360       H  0.36824328  0.03891790  0.13616469     0.08700
N1361       N  0.32930383  0.20893941  0.12237316    -0.25700
N1362       N  0.33668871  0.22431008  0.11042623    -0.33600
C1363       C  0.33470056  0.24613308  0.11299585     0.02600
C1364       C  0.32564428  0.24446526  0.12722603     0.08700
C1365       C  0.32242107  0.22071012  0.13293099    -0.04400
H1366       H  0.34019289  0.26238100  0.10519633     0.09300
H1367       H  0.31624301  0.21293140  0.14400159     0.10500
Cu1368     Cu  0.35086552  0.21610147  0.09141756     0.44200
Cu1369     Cu  0.33070377  0.17356404  0.12352798     0.42000
Cu1370     Cu  0.35705522  0.15741818  0.09033521     0.43900
N1371       N  0.36557819  0.20611182  0.07327056    -0.33100
N1372       N  0.36792112  0.18454026  0.07263701    -0.27300
C1373       C  0.37809763  0.18405360  0.05932856    -0.03400
C1374       C  0.38234269  0.20648566  0.05126733     0.08800
C1375       C  0.37418109  0.21990209  0.06051633     0.02600
H1376       H  0.38217757  0.16859809  0.05586172     0.10200
H1377       H  0.37446922  0.23842779  0.05814442     0.09300
N1378       N  0.34490820  0.13440003  0.10978793    -0.34500
N1379       N  0.33541311  0.14017191  0.12163261    -0.26700
C1380       C  0.32995450  0.12143220  0.13212122    -0.02000
C1381       C  0.33628277  0.10307115  0.12664036     0.06700
C1382       C  0.34569965  0.11184057  0.11250144     0.04700
H1383       H  0.32219018  0.12136215  0.14297958     0.09800
H1384       H  0.35282690  0.10264012  0.10478048     0.08700
N1385       N  0.28011831  0.81734695  0.04259298    -0.25700
N1386       N  0.27275045  0.80038501  0.05385220    -0.33600
C1387       C  0.29167044  0.81134580  0.06445702     0.02600
C1388       C  0.31192288  0.83638761  0.05967410     0.08700
C1389       C  0.30412690  0.83965229  0.04575203    -0.04400
H1390       H  0.29101036  0.80150385  0.07475188     0.09300
H1391       H  0.31523344  0.85665707  0.03837788     0.10500
Cu1392     Cu  0.23800244  0.76247950  0.05400719     0.44200
Cu1393     Cu  0.25676321  0.80816645  0.02349930     0.42000
Cu1394     Cu  0.19548245  0.74084003  0.02133292     0.43900
N1395       N  0.20283010  0.72514607  0.05204190    -0.33100
N1396       N  0.18728079  0.71688565  0.04016747    -0.27300
C1397       C  0.16563891  0.69214190  0.04287278    -0.03400
C1398       C  0.16781165  0.68479806  0.05710907     0.08800
C1399       C  0.19157989  0.70603312  0.06256504     0.02600
H1400       H  0.14930317  0.68069296  0.03518645     0.10200
H1401       H  0.19986455  0.70775061  0.07348945     0.09300
N1402       N  0.20747289  0.77049223  0.00499815    -0.34500
N1403       N  0.22958183  0.79474067  0.00587868    -0.26700
C1404       C  0.23112412  0.80916160  0.99384416    -0.02000
C1405       C  0.20900595  0.79344909  0.98493442     0.06700
C1406       C  0.19440773  0.76897135  0.99235601     0.04700
H1407       H  0.24712309  0.82978182  0.99178351     0.09800
H1408       H  0.17560281  0.75139834  0.98893352     0.08700
N1409       N  0.11408720  0.57098952  0.08495131    -0.35000
N1410       N  0.09425232  0.59739941  0.10409801    -0.55600
N1411       N  0.07186816  0.55107155  0.12420260    -0.35000
N1412       N  0.09339018  0.52561070  0.10553866    -0.55600
C1413       C  0.12763477  0.59634218  0.07932390     0.28600
C1414       C  0.12639807  0.55803808  0.07985684     0.28600
C1415       C  0.06732935  0.56813277  0.13221334     0.28600
C1416       C  0.06743094  0.53019801  0.13308188     0.28600
C1417       C  0.10373183  0.61546317  0.09284865     0.37200
C1418       C  0.08046814  0.60461088  0.11318197     0.37200
C1419       C  0.10119008  0.51552572  0.09446860     0.37200
C1420       C  0.07967304  0.50518914  0.11524266     0.37200
C1421       C  0.14843832  0.59930416  0.07033278    -0.20300
C1422       C  0.14763567  0.57514253  0.07065851    -0.20300
C1423       C  0.05926813  0.55757534  0.14631162    -0.20300
C1424       C  0.05940632  0.53375927  0.14686186    -0.20300
C1425       C  0.09610217  0.63437358  0.09480266    -0.21400
C1426       C  0.08146329  0.62758687  0.10765155    -0.21400
C1427       C  0.09249339  0.48861581  0.09714443    -0.21400
C1428       C  0.07895052  0.48208015  0.11030820    -0.21400
C1429       C  0.12121746  0.61659106  0.08159954    -0.16700
C1430       C  0.11846432  0.53093872  0.08282784    -0.16700
C1431       C  0.06917467  0.50741614  0.12890943    -0.16700
C1432       C  0.06893564  0.59220557  0.12696448    -0.16700
H1433       H  0.16277604  0.61704277  0.06415970     0.16200
H1434       H  0.16122976  0.57072660  0.06480080     0.16200
H1435       H  0.05363635  0.56599083  0.15528399     0.16200
H1436       H  0.05393991  0.52044307  0.15630797     0.16200
H1437       H  0.10112263  0.65165393  0.08788409     0.14500
H1438       H  0.07321209  0.63888827  0.11249551     0.14500
H1439       H  0.09611474  0.47526445  0.09049101     0.14500
H1440       H  0.06999061  0.46258182  0.11568804     0.14500
H1441       H  0.09592359  0.56216860  0.09068515     0.27700
H1442       H  0.07525725  0.55231946  0.11294680     0.27700
N1443       N  0.50293454  0.71424487  0.04434942    -0.25700
N1444       N  0.49378202  0.72077244  0.05600929    -0.45600
C1445       C  0.48367681  0.70030540  0.06575252     0.02600
C1446       C  0.48664374  0.67997247  0.05997794     0.08700
C1447       C  0.49886584  0.68927034  0.04640030    -0.04400
H1448       H  0.47468939  0.70022300  0.07622643     0.09300
H1449       H  0.50426662  0.67871097  0.03858796     0.10500
Cu1450     Cu  0.49460209  0.75672582  0.05826807     0.44200
Cu1451     Cu  0.52009617  0.73993686  0.02630268     0.42000
Cu1452     Cu  0.51907218  0.80295439  0.02776229     0.43900
N1453       N  0.49471615  0.79251416  0.05810977    -0.33100
N1454       N  0.50340657  0.80955471  0.04685585    -0.27300
C1455       C  0.49957346  0.83015097  0.04993371    -0.03400
C1456       C  0.48795522  0.82564512  0.06374813     0.08800
C1457       C  0.48514296  0.80170490  0.06863593     0.02600
H1458       H  0.50439371  0.84681188  0.04256133     0.10200
H1459       H  0.47624000  0.79137478  0.07891335     0.09300
N1460       N  0.53490505  0.79202081  0.01035701    -0.34500
N1461       N  0.53559708  0.76947352  0.00988854    -0.26700
C1462       C  0.54780999  0.76916392  0.99731705    -0.02000
C1463       C  0.55514053  0.79264220  0.98948518     0.06700
C1464       C  0.54656209  0.80654017  0.99808045     0.04700
H1465       H  0.55105222  0.75299293  0.99419084     0.09800
H1466       H  0.54882845  0.82596114  0.99563657     0.08700
N1467       N  0.42382492  0.87780460  0.08825018    -0.35000
N1468       N  0.46731305  0.89248216  0.10972407    -0.55600
N1469       N  0.44396608  0.91548484  0.12890282    -0.35000
N1470       N  0.39926886  0.89885793  0.10808797    -0.55600
C1471       C  0.43497609  0.86395403  0.08276698     0.28600
C1472       C  0.39949593  0.86808065  0.08162070     0.28600
C1473       C  0.46451746  0.91867081  0.13762287     0.28600
C1474       C  0.42762926  0.92069306  0.13716517     0.28600
C1475       C  0.47606905  0.88297407  0.09881057     0.37200
C1476       C  0.48768697  0.90440989  0.11962974     0.37200
C1477       C  0.38205542  0.89222751  0.09656074     0.37200
C1478       C  0.39233840  0.91168044  0.11803165     0.37200
C1479       C  0.41787473  0.84578716  0.07222856    -0.20300
C1480       C  0.39556917  0.84841822  0.07148391    -0.20300
C1481       C  0.46143266  0.92642051  0.15157729    -0.20300
C1482       C  0.43820043  0.92763512  0.15130565    -0.20300
C1483       C  0.50197535  0.88854082  0.10188749    -0.21400
C1484       C  0.50935104  0.90214186  0.11502432    -0.21400
C1485       C  0.36395344  0.90070324  0.09922422    -0.21400
C1486       C  0.37035117  0.91287733  0.11279570    -0.21400
C1487       C  0.46046472  0.86770818  0.08662411    -0.16700
C1488       C  0.38074392  0.87646181  0.08431588    -0.16700
C1489       C  0.40440897  0.92096204  0.13212202    -0.16700
C1490       C  0.48661706  0.91599307  0.13317882    -0.16700
H1491       H  0.42104408  0.83193041  0.06576550     0.16200
H1492       H  0.37827830  0.83688451  0.06437112     0.16200
H1493       H  0.47464906  0.93093394  0.16097657     0.16200
H1494       H  0.43026194  0.93339143  0.16046469     0.16200
H1495       H  0.51421305  0.88312180  0.09541840     0.14500
H1496       H  0.52837381  0.90911058  0.12063245     0.14500
H1497       H  0.34740946  0.89782246  0.09227767     0.14500
H1498       H  0.35955032  0.92112871  0.11825290     0.14500
H1499       H  0.43326302  0.89446307  0.09511830     0.27700
H1500       H  0.44269996  0.91265075  0.11763390     0.27700
N1501       N  0.41699494  0.56526064  0.08632001    -0.35000
N1502       N  0.46422545  0.58980255  0.10548678    -0.55600
N1503       N  0.43741637  0.54324687  0.12506267    -0.35000
N1504       N  0.39095783  0.51786998  0.10517851    -0.55600
C1505       C  0.43473187  0.58624596  0.07782806     0.28600
C1506       C  0.39622466  0.54810148  0.07754520     0.28600
C1507       C  0.46275948  0.55588858  0.13077147     0.28600
C1508       C  0.42367563  0.51792074  0.13077572     0.28600
C1509       C  0.47073944  0.61114218  0.09658277     0.37200
C1510       C  0.48198891  0.59930946  0.11680996     0.37200
C1511       C  0.37012792  0.51169839  0.09594275     0.37200
C1512       C  0.38066094  0.50013204  0.11651711     0.37200
C1513       C  0.42509864  0.58244452  0.06348334    -0.20300
C1514       C  0.40078008  0.55834479  0.06330380    -0.20300
C1515       C  0.46504765  0.53844458  0.14038108    -0.20300
C1516       C  0.44041171  0.51453664  0.14040295    -0.20300
C1517       C  0.49291662  0.63427791  0.10218836    -0.21400
C1518       C  0.50012510  0.62676936  0.11495214    -0.21400
C1519       C  0.34656158  0.48968058  0.10130937    -0.21400
C1520       C  0.35322629  0.48229565  0.11429612    -0.21400
C1521       C  0.45821115  0.60965094  0.08294514    -0.16700
C1522       C  0.37239458  0.52461332  0.08231461    -0.16700
C1523       C  0.39599525  0.49847307  0.12824519    -0.16700
C1524       C  0.48323798  0.58323062  0.12823731    -0.16700
H1525       H  0.43443953  0.59584042  0.05415934     0.16200
H1526       H  0.38774137  0.54956228  0.05381647     0.16200
H1527       H  0.48254062  0.54260938  0.14685891     0.16200
H1528       H  0.43534238  0.49678176  0.14690003     0.16200
H1529       H  0.50316793  0.65437242  0.09743842     0.14500
H1530       H  0.51701249  0.64003043  0.12194347     0.14500
H1531       H  0.32671365  0.47969713  0.09628643     0.14500
H1532       H  0.33942017  0.46540777  0.12115763     0.14500
H1533       H  0.41732066  0.56454433  0.09774570     0.27700
H1534       H  0.42901435  0.55232519  0.11896353     0.27700
N1535       N  0.26696995  0.47908303  0.04427169    -0.25700
N1536       N  0.26333984  0.49375245  0.05414674    -0.33600
C1537       C  0.28483616  0.50558195  0.06318097     0.02600
C1538       C  0.30282748  0.49801206  0.05883102     0.08700
C1539       C  0.29102295  0.48121079  0.04683167    -0.04400
H1540       H  0.28705192  0.51855747  0.07232772     0.09300
H1541       H  0.29920646  0.47124724  0.04046814     0.10500
Cu1542     Cu  0.22932111  0.49690743  0.05546812     0.44200
Cu1543     Cu  0.23902552  0.45738253  0.02766592     0.42000
Cu1544     Cu  0.17773500  0.46080370  0.02852478     0.43900
N1545       N  0.19306782  0.49599910  0.05527224    -0.33100
N1546       N  0.17390321  0.48252061  0.04538836    -0.27300
C1547       C  0.15283664  0.48567168  0.04825917    -0.03400
C1548       C  0.15923420  0.50184567  0.06053921     0.08800
C1549       C  0.18476844  0.50809673  0.06473516     0.02600
H1550       H  0.13435725  0.47685390  0.04189100     0.10200
H1551       H  0.19643668  0.52043575  0.07397375     0.09300
N1552       N  0.18687715  0.44236412  0.01194449    -0.34500
N1553       N  0.20900795  0.44093024  0.01148977    -0.26700
C1554       C  0.20923920  0.42918304  0.99871905    -0.02000
C1555       C  0.18615980  0.42307483  0.99080204     0.06700
C1556       C  0.17251684  0.43164527  0.99956634     0.04700
H1557       H  0.22541639  0.42612731  0.99532190     0.09800
H1558       H  0.15387529  0.43094217  0.99692781     0.08700
N1559       N  0.65020905  0.67159190  0.15314886    -0.25700
N1560       N  0.63459141  0.65060709  0.14463683    -0.33600
C1561       C  0.65025423  0.64443553  0.13659656     0.02600
C1562       C  0.67693536  0.66230408  0.14018357     0.08700
C1563       C  0.67627812  0.67926455  0.15070775    -0.04400
H1564       H  0.64273366  0.62822052  0.12863659     0.09300
H1565       H  0.69342692  0.69600935  0.15612340     0.10500
Cu1566     Cu  0.59257825  0.63131058  0.14378230     0.44200
Cu1567     Cu  0.63511408  0.68897441  0.16753060     0.42000
Cu1568     Cu  0.56159977  0.65756198  0.16723774     0.43900
N1569       N  0.55110253  0.61627747  0.14384907    -0.33100
N1570       N  0.53967452  0.62588722  0.15254999    -0.27300
C1571       C  0.51323718  0.61390271  0.14912784    -0.03400
C1572       C  0.50768773  0.59577105  0.13777377     0.08800
C1573       C  0.53224135  0.59800209  0.13463156     0.02600
H1574       H  0.49950225  0.61940413  0.15379471     0.10200
H1575       H  0.53643561  0.58842084  0.12564865     0.09300
N1576       N  0.58739309  0.69005303  0.18065501    -0.34500
N1577       N  0.61404811  0.70157211  0.18081237    -0.26700
C1578       C  0.62434877  0.72161479  0.19087137    -0.02000
C1579       C  0.60317061  0.72265632  0.19728378     0.06700
C1580       C  0.58009893  0.70244823  0.19056817     0.04700
H1581       H  0.64562678  0.73428507  0.19341443     0.09800
H1582       H  0.55946975  0.69695600  0.19280548     0.08700
N1583       N  0.05942170  0.70628665  0.18333928    -0.25700
N1584       N  0.07407278  0.69462032  0.18303085    -0.33600
C1585       C  0.09469083  0.70729551  0.19264094     0.02600
C1586       C  0.09301260  0.72788185  0.19925852     0.08700
C1587       C  0.07046608  0.72672267  0.19315333    -0.04400
H1588       H  0.10998599  0.70210039  0.19451975     0.09300
H1589       H  0.06277360  0.73988031  0.19555454     0.10500
Cu1590     Cu  0.06683599  0.66285714  0.16907379     0.44200
Cu1591     Cu  0.02535155  0.69451746  0.17014527     0.42000
Cu1592     Cu  0.01143848  0.64187851  0.14392101     0.43900
N1593       N  0.05729388  0.63386769  0.15273942    -0.33100
N1594       N  0.03682806  0.62627128  0.14354611    -0.27300
C1595       C  0.03691105  0.60910777  0.13357803    -0.03400
C1596       C  0.05849654  0.60570312  0.13656574     0.08800
C1597       C  0.07102302  0.62174467  0.14879144     0.02600
H1598       H  0.02320222  0.60091039  0.12431669     0.10200
H1599       H  0.08955361  0.62543689  0.15392530     0.09300
N1600       N  0.98835112  0.65995958  0.14559476    -0.34500
N1601       N  0.99310795  0.67908604  0.15523030    -0.26700
C1602       C  0.97431864  0.68614823  0.15347263    -0.02000
C1603       C  0.95709396  0.67073178  0.14219814     0.06700
C1604       C  0.96656861  0.65441615  0.13745694     0.04700
H1605       H  0.97330397  0.70134741  0.15990610     0.09800
H1606       H  0.95822051  0.63953155  0.12874991     0.08700
N1607       N  0.77733524  0.65924880  0.11665844    -0.25700
N1608       N  0.76097872  0.64765508  0.10526467    -0.33600
C1609       C  0.73783544  0.64746215  0.10762114     0.02600
C1610       C  0.73969857  0.65946585  0.12106828     0.08700
C1611       C  0.76492256  0.66668771  0.12652321    -0.04400
H1612       H  0.72073783  0.63880978  0.10018160     0.09300
H1613       H  0.77345357  0.67619386  0.13700220     0.10500
Cu1614     Cu  0.76999285  0.63184900  0.08692217     0.44200
Cu1615     Cu  0.81552147  0.66361633  0.11874518     0.42000
Cu1616     Cu  0.83504147  0.63819094  0.08763985     0.43900
N1617       N  0.78453813  0.61916291  0.06954430    -0.33100
N1618       N  0.80865707  0.62174985  0.06987434    -0.27300
C1619       C  0.81279782  0.61258991  0.05711240    -0.03400
C1620       C  0.79029507  0.60383764  0.04821825     0.08800
C1621       C  0.77268252  0.60825504  0.05650679     0.02600
H1622       H  0.83102108  0.61251970  0.05443547     0.10200
H1623       H  0.75283840  0.60409093  0.05331194     0.09300
N1624       N  0.85865785  0.65434240  0.10643606    -0.34500
N1625       N  0.85178877  0.66366745  0.11789276    -0.26700
C1626       C  0.87103176  0.67142276  0.12837169    -0.02000
C1627       C  0.89080346  0.66673292  0.12317228     0.06700
C1628       C  0.88231306  0.65592238  0.10929047     0.04700
H1629       H  0.87032415  0.67922454  0.13908285     0.09800
H1630       H  0.89223540  0.64902430  0.10192938     0.08700
O1631       O  0.19286151  0.84814919  0.23777980    -0.71400
O1632       O  0.14090316  0.79379645  0.26759059    -0.72300
O1633       O  0.19097921  0.84384672  0.26907792    -0.61000
O1634       O  0.14216611  0.79781959  0.23618492    -0.69400
O1635       O  0.16419513  0.77570005  0.23511055    -0.68900
O1636       O  0.21307836  0.82176604  0.26813591    -0.60200
O1637       O  0.16296253  0.77171309  0.26650100    -0.72700
O1638       O  0.21484109  0.82598529  0.23682058    -0.71500
Cu1639     Cu  0.16594937  0.82166359  0.25266448     1.04600
Cu1640     Cu  0.18953038  0.79800692  0.25157224     1.04300
C1641       C  0.21223556  0.84575686  0.23279380     0.94800
C1642       C  0.14396392  0.77437432  0.27178740     0.94000
C1643       C  0.20960824  0.84002024  0.27375834     0.86100
C1644       C  0.14530697  0.77933730  0.23060501     0.92400
C1645       C  0.12698805  0.76202807  0.21928280    -0.11700
C1646       C  0.11136779  0.74679638  0.21008802    -0.13200
C1647       C  0.91428133  0.67000068  0.13085708    -0.11700
C1648       C  0.93392991  0.67116030  0.13644459    -0.13200
C1649       C  0.70032104  0.66296028  0.13396163    -0.11700
C1650       C  0.71881408  0.66206963  0.12826728    -0.13200
C1651       C  0.34869968  0.51371301  0.07288372    -0.11700
C1652       C  0.32818822  0.50582271  0.06586107    -0.13200
C1653       C  0.47891558  0.84148399  0.07121756    -0.11700
C1654       C  0.47069543  0.85380318  0.07794609    -0.13200
C1655       C  0.46969876  0.63367686  0.07377721    -0.11700
C1656       C  0.47808440  0.65437431  0.06687690    -0.13200
C1657       C  0.13083448  0.51912457  0.07423199    -0.11700
C1658       C  0.14291809  0.51057714  0.06763019    -0.13200
C1659       C  0.33684636  0.85386750  0.06736640    -0.11700
C1660       C  0.35713669  0.86565973  0.07475388    -0.13200
C1661       C  0.14902647  0.66065858  0.06506251    -0.11700
C1662       C  0.13515847  0.64074771  0.07246504    -0.13200
C1663       C  0.23158468  0.86568064  0.22259490    -0.11700
C1664       C  0.24824729  0.88195623  0.21406206    -0.13200
C1665       C  0.33321402  0.06068741  0.14017428    -0.11700
C1666       C  0.33426504  0.08000286  0.13420059    -0.13200
C1667       C  0.32283274  0.26484680  0.13472892    -0.11700
C1668       C  0.32194233  0.28347698  0.14012699    -0.13200
C1669       C  0.70202182  0.05369042  0.14087790    -0.11700
C1670       C  0.71986390  0.07368388  0.13484811    -0.13200
C1671       C  0.90659274  0.27380925  0.13168720    -0.11700
C1672       C  0.92718194  0.29241483  0.13669439    -0.13200
C1673       C  0.60487871  0.75497261  0.21859057    -0.11700
C1674       C  0.60453959  0.74048069  0.20886196    -0.13200
C1675       C  0.60459945  0.87178915  0.21232492    -0.11700
C1676       C  0.60527081  0.85628825  0.22112867    -0.13200
C1677       C  0.10838716  0.38212308  0.20574286    -0.11700
C1678       C  0.12110644  0.37947927  0.21551463    -0.13200
C1679       C  0.21587296  0.37281367  0.21543892    -0.11700
C1680       C  0.23133842  0.37462131  0.20595293    -0.13200
C1681       C  0.11132102  0.73959192  0.29210339    -0.11700
C1682       C  0.12597636  0.75537896  0.28274456    -0.13200
C1683       C  0.90738432  0.65107232  0.36612325    -0.11700
C1684       C  0.92780049  0.65312038  0.36110907    -0.13200
C1685       C  0.60194965  0.73506010  0.29182073    -0.11700
C1686       C  0.60287182  0.75062631  0.28253897    -0.13200
C1687       C  0.71359152  0.64748266  0.36802463    -0.11700
C1688       C  0.69540709  0.64926424  0.36260823    -0.13200
C1689       C  0.32297595  0.49356514  0.42867908    -0.11700
C1690       C  0.34296344  0.50087937  0.42131820    -0.13200
C1691       C  0.12390003  0.61470895  0.42828922    -0.11700
C1692       C  0.13634206  0.63466096  0.43574675    -0.13200
C1693       C  0.11900232  0.49283716  0.42306405    -0.11700
C1694       C  0.13154254  0.48492912  0.42998260    -0.13200
C1695       C  0.47615234  0.63726722  0.42935324    -0.11700
C1696       C  0.46715469  0.61682766  0.42224196    -0.13200
C1697       C  0.47376765  0.82283648  0.43190720    -0.11700
C1698       C  0.46499789  0.83524465  0.42577772    -0.13200
C1699       C  0.32479153  0.82413823  0.43526271    -0.11700
C1700       C  0.34528753  0.83598332  0.42808044    -0.13200
C1701       C  0.24151477  0.87068964  0.29531616    -0.11700
C1702       C  0.22693921  0.85661651  0.28550103    -0.13200
C1703       C  0.32051127  0.04418087  0.37105483    -0.11700
C1704       C  0.32124818  0.06419381  0.37575911    -0.13200
C1705       C  0.21294189  0.36382567  0.27890909    -0.11700
C1706       C  0.22788897  0.36327053  0.28808500    -0.13200
C1707       C  0.30593876  0.26715559  0.36299282    -0.11700
C1708       C  0.30791220  0.24929789  0.36875736    -0.13200
C1709       C  0.60385360  0.85117663  0.28431068    -0.11700
C1710       C  0.60295237  0.86528387  0.29384099    -0.13200
C1711       C  0.69220625  0.04572086  0.36519939    -0.11700
C1712       C  0.71006927  0.06600986  0.37090487    -0.13200
C1713       C  0.10052816  0.37196074  0.28807837    -0.11700
C1714       C  0.11560486  0.37106451  0.27918510    -0.13200
C1715       C  0.91504793  0.27979288  0.35567296    -0.11700
C1716       C  0.89664333  0.26225684  0.36279986    -0.13200
C1717       C  0.18075558  0.78658877  0.96265016    -0.14800
C1718       C  0.20313757  0.80215407  0.97070089    -0.30000
H1719       H  0.16585695  0.76653114  0.96655711     0.14200
H1720       H  0.21793003  0.82225671  0.96681298     0.14800
C1721       C  0.26795309  0.95333557  0.86717416    -0.11700
C1722       C  0.24844531  0.93329122  0.87218775    -0.13200
C1723       C  0.03258394  0.72062195  0.85919607    -0.11700
C1724       C  0.05285688  0.73898924  0.86470127    -0.13200
C1725       C  0.39982668  0.20084728  0.02734735    -0.14800
C1726       C  0.39331295  0.21532018  0.03614616    -0.30000
H1727       H  0.39692405  0.18175435  0.03128309     0.14200
H1728       H  0.39593138  0.23428810  0.03218136     0.14800
C1729       C  0.48010170  0.34276071  0.93073979    -0.11700
C1730       C  0.48889163  0.36326590  0.92348816    -0.13200
C1731       C  0.63152150  0.49068931  0.92884796    -0.11700
C1732       C  0.61143850  0.48287118  0.92141912    -0.13200
C1733       C  0.76503348  0.58538501  0.02468744    -0.14800
C1734       C  0.78692222  0.59252780  0.03312062    -0.30000
H1735       H  0.74894451  0.58800200  0.02890342     0.14200
H1736       H  0.80304791  0.58996531  0.02890714     0.14800
C1737       C  0.83812524  0.49452384  0.92450666    -0.11700
C1738       C  0.82493027  0.50200352  0.93113302    -0.13200
C1739       C  0.57780117  0.78768981  0.96749594    -0.14800
C1740       C  0.56907570  0.80173434  0.97507389    -0.30000
H1741       H  0.57488483  0.76892222  0.97198432     0.14200
H1742       H  0.57209534  0.82056364  0.97062106     0.14800
C1743       C  0.64011095  0.71214081  0.86111738    -0.11700
C1744       C  0.63932743  0.73038235  0.86716725    -0.13200
C1745       C  0.63885455  0.92083929  0.87006460    -0.11700
C1746       C  0.63947855  0.94024405  0.86449386    -0.13200
C1747       C  0.82393544  0.35475529  0.93355623    -0.11700
C1748       C  0.83744662  0.37570472  0.92693896    -0.13200
C1749       C  0.78109289  0.22404640  0.02915060    -0.14800
C1750       C  0.76709101  0.20130764  0.03715076    -0.30000
H1751       H  0.79940954  0.24107503  0.03361515     0.14200
H1752       H  0.74901189  0.18415976  0.03257580     0.14800
C1753       C  0.49544438  0.14855697  0.92430827    -0.11700
C1754       C  0.48518351  0.15948437  0.93058191    -0.13200
C1755       C  0.61457755  0.14799641  0.92905098    -0.11700
C1756       C  0.63531311  0.16072709  0.93599950    -0.13200
C1757       C  0.19269406  0.40536009  0.96725603    -0.14800
C1758       C  0.17781239  0.41170961  0.97582130    -0.30000
H1759       H  0.21164406  0.40815554  0.97135432     0.14200
H1760       H  0.15895433  0.40906219  0.97167363     0.14800
C1761       C  0.03050113  0.33755530  0.86807214    -0.11700
C1762       C  0.05104331  0.34014809  0.87325975    -0.13200
C1763       C  0.23900299  0.33551018  0.86579543    -0.11700
C1764       C  0.25674450  0.33357696  0.85992433    -0.13200
C1765       C  0.36224581  0.14289844  0.78350821    -0.11700
C1766       C  0.36397045  0.12909283  0.79302007    -0.13200
C1767       C  0.35552512  0.24101665  0.77857516    -0.11700
C1768       C  0.35574921  0.25754071  0.78683290    -0.13200
C1769       C  0.72202397  0.11974825  0.79276117    -0.11700
C1770       C  0.73842788  0.13516691  0.78394180    -0.13200
C1771       C  0.83927366  0.24076349  0.78452467    -0.11700
C1772       C  0.85411929  0.25749621  0.79344906    -0.13200
C1773       C  0.73888770  0.62086466  0.77825740    -0.11700
C1774       C  0.72332495  0.62020182  0.78747555    -0.13200
C1775       C  0.83896731  0.61906863  0.77834166    -0.11700
C1776       C  0.85348253  0.61802968  0.78759582    -0.13200
C1777       C  0.56223001  0.77170780  0.52499714    -0.14800
C1778       C  0.56876964  0.79401681  0.53279621    -0.30000
H1779       H  0.56577637  0.75643310  0.52960013     0.14200
H1780       H  0.56558710  0.80948814  0.52812829     0.14800
C1781       C  0.72249751  0.61721040  0.70565101    -0.11700
C1782       C  0.73815883  0.61826945  0.71486169    -0.13200
C1783       C  0.63427294  0.70918260  0.63588492    -0.11700
C1784       C  0.63291833  0.72737249  0.63014191    -0.13200
C1785       C  0.72774749  0.11829850  0.71137863    -0.11700
C1786       C  0.74280285  0.13331440  0.72084731    -0.13200
C1787       C  0.64359854  0.92336900  0.62996605    -0.11700
C1788       C  0.64574335  0.94322258  0.63574634    -0.13200
C1789       C  0.81360309  0.33889931  0.56636514    -0.11700
C1790       C  0.82709594  0.35913499  0.57357266    -0.13200
C1791       C  0.75855631  0.19288432  0.47359192    -0.14800
C1792       C  0.78053550  0.20785313  0.46521939    -0.30000
H1793       H  0.74275224  0.17321664  0.46973292     0.14200
H1794       H  0.79636686  0.22751766  0.46907349     0.14800
C1795       C  0.82167434  0.49003258  0.56560756    -0.11700
C1796       C  0.83349598  0.48122199  0.57238069    -0.13200
C1797       C  0.76212003  0.57602548  0.47330220    -0.14800
C1798       C  0.78393116  0.58343033  0.46482876    -0.30000
H1799       H  0.74585115  0.57851489  0.46920979     0.14200
H1800       H  0.80014681  0.58085306  0.46891323     0.14800
C1801       C  0.60751977  0.46979922  0.57389621    -0.11700
C1802       C  0.62819195  0.47762576  0.56710180    -0.13200
C1803       C  0.47426710  0.32876560  0.57249761    -0.11700
C1804       C  0.48397652  0.35002813  0.57897773    -0.13200
C1805       C  0.38370295  0.18588386  0.47854244    -0.14800
C1806       C  0.37528909  0.19989451  0.47059526    -0.30000
H1807       H  0.38261230  0.16810028  0.47383117     0.14200
H1808       H  0.37618994  0.21759530  0.47531076     0.14800
C1809       C  0.62554596  0.14609929  0.56820497    -0.11700
C1810       C  0.60516307  0.13345215  0.57534897    -0.13200
C1811       C  0.48526713  0.13174116  0.57958953    -0.11700
C1812       C  0.47566505  0.14284200  0.57278742    -0.13200
C1813       C  0.19751813  0.79426520  0.53718730    -0.14800
C1814       C  0.18382990  0.77037770  0.53021680    -0.30000
H1815       H  0.21629081  0.81040507  0.53254801     0.14200
H1816       H  0.16518884  0.75416050  0.53493549     0.14800
C1817       C  0.36320779  0.11997150  0.71289117    -0.11700
C1818       C  0.36203701  0.13588037  0.72102561    -0.13200
C1819       C  0.24771997  0.92309808  0.63384292    -0.11700
C1820       C  0.26598443  0.94186256  0.64033044    -0.13200
C1821       C  0.85345329  0.61517529  0.70621120    -0.11700
C1822       C  0.83865782  0.61661066  0.71517711    -0.13200
C1823       C  0.03223294  0.71344586  0.63411960    -0.11700
C1824       C  0.05247194  0.73229410  0.62887443    -0.13200
C1825       C  0.16611536  0.39023855  0.53113595    -0.14800
C1826       C  0.18799854  0.39722281  0.52284580    -0.30000
H1827       H  0.14997596  0.39275695  0.52685541     0.14200
H1828       H  0.20409784  0.39464781  0.52712615     0.14800
C1829       C  0.84204631  0.23748283  0.72118385    -0.11700
C1830       C  0.85617629  0.25287529  0.71161174    -0.13200
C1831       C  0.03266767  0.33569355  0.63887740    -0.11700
C1832       C  0.05261828  0.33741431  0.63348833    -0.13200
C1833       C  0.35460010  0.24951729  0.70748536    -0.11700
C1834       C  0.35498625  0.23428158  0.71654093    -0.13200
C1835       C  0.24340287  0.33756300  0.62964783    -0.11700
C1836       C  0.26151931  0.33665278  0.63588657    -0.13200
loop_ 
_geom_bond_atom_site_label_1 
_geom_bond_atom_site_label_2 
_geom_bond_distance 
_geom_bond_site_symmetry_2 
_ccdc_geom_bond_type 
N1            N2   1.325       .  A
N1            C5   1.351       .  A
N1           Cu9   2.102       .  S
N2            C3   1.346       .  A
N2           Cu8   2.083       .  S
C3            C4   1.380       .  A
C3            H6   1.082       .  S
C4            C5   1.386       .  A
C4         C1836   1.449       .  S
C5            H7   1.082       .  S
Cu8          N11   2.083       .  S
Cu9          N19   2.102       .  S
Cu10         N12   2.070       .  S
Cu10         N18   2.071       .  S
N11          N12   1.321       .  A
N11          C15   1.347       .  A
N12          C13   1.345       .  A
C13          C14   1.383       .  A
C13          H16   1.082       .  S
C14          C15   1.385       .  A
C14         C226   1.483       .  S
C15          H17   1.082       .  S
N18          N19   1.324       .  A
N18          C22   1.345       .  A
N19          C20   1.350       .  A
C20          C21   1.385       .  A
C20          H23   1.082       .  S
C21          C22   1.378       .  A
C21        C1833   1.444       .  S
C22          H24   1.082       .  S
N25          N26   1.325       .  A
N25          C29   1.346       .  A
N25         Cu33   2.074       .  S
N26          C27   1.348       .  A
N26         Cu32   2.094       .  S
C27          C28   1.382       .  A
C27          H30   1.082       .  S
C28          C29   1.378       .  A
C28        C1830   1.441       .  S
C29          H31   1.082       .  S
Cu32         N35   2.095       .  S
Cu33         N43   2.073       .  S
Cu34         N36   2.084       .  S
Cu34         N42   2.083       .  S
N35          N36   1.323       .  A
N35          C39   1.350       .  A
N36          C37   1.347       .  A
C37          C38   1.384       .  A
C37          H40   1.082       .  S
C38          C39   1.388       .  A
C38         C306   1.491       .  S
C39          H41   1.082       .  S
N42          N43   1.323       .  A
N42          C46   1.345       .  A
N43          C44   1.348       .  A
C44          C45   1.381   1_655  A
C44          H47   1.082       .  S
C45          C46   1.380   1_455  A
C45        C1831   1.440       .  S
C46          H48   1.082   1_655  S
N49          N50   1.324       .  A
N49          C53   1.348       .  A
N49         Cu57   2.091       .  S
N50          C51   1.349       .  A
N50         Cu56   2.089       .  S
C51          C52   1.384       .  A
C51          H54   1.082       .  S
C52          C53   1.383       .  A
C52        C1835   1.449       .  S
C53          H55   1.082       .  S
Cu56         N59   2.087       .  S
Cu57         N67   2.091       .  S
Cu58         N60   2.062       .  S
Cu58         N66   2.062       .  S
N59          N60   1.322       .  A
N59          C63   1.346       .  A
N60          C61   1.344       .  A
C61          C62   1.380       .  A
C61          H64   1.082       .  S
C62          C63   1.389       .  A
C62        C1825   1.477       .  S
C63          H65   1.081       .  S
N66          N67   1.323       .  A
N66          C70   1.344       .  A
N67          C68   1.349       .  A
C68          C69   1.384       .  A
C68          H71   1.082       .  S
C69          C70   1.377       .  A
C69        C1832   1.440       .  S
C70          H72   1.082       .  S
N73          N74   1.324       .  A
N73          C77   1.349       .  A
N73         Cu81   2.087       .  S
N74          C75   1.346       .  A
N74         Cu80   2.085       .  S
C75          C76   1.380   1_655  A
C75          H78   1.082   1_655  S
C76          C77   1.382   1_455  A
C76        C1823   1.444       .  S
C77          H79   1.082       .  S
Cu80         N83   2.086       .  S
Cu81         N91   2.087       .  S
Cu82         N84   2.096       .  S
Cu82         N90   2.097       .  S
N83          N84   1.323       .  A
N83          C87   1.348       .  A
N84          C85   1.349       .  A
C85          C86   1.388       .  A
C85          H88   1.082       .  S
C86          C87   1.386       .  A
C86         C307   1.490       .  S
C87          H89   1.082       .  S
N90          N91   1.324       .  A
N90          C94   1.350       .  A
N91          C92   1.349       .  A
C92          C93   1.383       .  A
C92          H95   1.082       .  S
C93          C94   1.385       .  A
C93        C1821   1.450       .  S
C94          H96   1.082       .  S
N97          N98   1.323       .  A
N97         C101   1.348       .  A
N97        Cu105   2.084   1_565  S
N98          C99   1.343       .  A
N98        Cu104   2.065   1_565  S
C99         C100   1.377       .  A
C99         H102   1.082       .  S
C100        C101   1.383       .  A
C100       C1820   1.438       .  S
C101        H103   1.082       .  S
Cu104       N107   2.065       .  S
Cu105       N115   2.085       .  S
Cu106       N108   2.079       .  S
Cu106       N114   2.080       .  S
N107        N108   1.322       .  A
N107        C111   1.343       .  A
N108        C109   1.347       .  A
C109        C110   1.385       .  A
C109        H112   1.082       .  S
C110        C111   1.380       .  A
C110        C167   1.479       .  S
C111        H113   1.082       .  S
N114        N115   1.325       .  A
N114        C118   1.346       .  A
N115        C116   1.347       .  A
C116        C117   1.381       .  A
C116        H119   1.082       .  S
C117        C118   1.380       .  A
C117       C1817   1.442       .  S
C118        H120   1.082       .  S
N121        N122   1.324       .  A
N121        C125   1.347       .  A
N121       Cu129   2.079       .  S
N122        C123   1.345       .  A
N122       Cu128   2.076       .  S
C123        C124   1.379       .  A
C123        H126   1.082       .  S
C124        C125   1.380       .  A
C124       C1819   1.439       .  S
C125        H127   1.082       .  S
Cu128       N131   2.075       .  S
Cu129       N139   2.080       .  S
Cu130       N132   2.084       .  S
Cu130       N138   2.085       .  S
N131        N132   1.322       .  A
N131        C135   1.345       .  A
N132        C133   1.348       .  A
C133        C134   1.389       .  A
C133        H136   1.081       .  S
C134        C135   1.382       .  A
C134       C1813   1.482       .  S
C135        H137   1.082       .  S
N138        N139   1.324       .  A
N138        C142   1.346       .  A
N139        C140   1.348       .  A
C140        C141   1.382       .  A
C140        H143   1.082       .  S
C141        C142   1.381       .  A
C141       C1824   1.443       .  S
C142        H144   1.082       .  S
N145        C150   1.355       .  A
N145        C149   1.354       .  A
N145        H177   1.035       .  S
N146        C153   1.351       .  A
N146        C154   1.352       .  A
N147        C152   1.353       .  A
N147        C151   1.356       .  A
N147        H178   1.034       .  S
N148        C155   1.354       .  A
N148        C156   1.352       .  A
C149        C157   1.388       .  A
C149        C165   1.417       .  A
C150        C166   1.417       .  A
C150        C158   1.387       .  A
C151        C159   1.387       .  A
C151        C168   1.418       .  A
C152        C167   1.418       .  A
C152        C160   1.388       .  A
C153        C165   1.413       .  A
C153        C161   1.387       .  A
C154        C168   1.413       .  A
C154        C162   1.387       .  A
C155        C163   1.385       .  A
C155        C166   1.415       .  A
C156        C164   1.387       .  A
C156        C167   1.416       .  A
C157        C158   1.372       .  A
C157        H169   1.082       .  S
C158        H170   1.082       .  S
C159        C160   1.374       .  A
C159        H171   1.082       .  S
C160        H172   1.082       .  S
C161        C162   1.372       .  A
C161        H173   1.082       .  S
C162        H174   1.082       .  S
C163        C164   1.374       .  A
C163        H175   1.082       .  S
C164        H176   1.082       .  S
C165       C1810   1.449       .  S
C166        C332   1.484       .  S
C168       C1811   1.456       .  S
N179        N180   1.323       .  A
N179        C183   1.350       .  A
N179       Cu187   2.092       .  S
N180        C181   1.343       .  A
N180       Cu186   2.066       .  S
C181        C182   1.377       .  A
C181        H184   1.082       .  S
C182        C183   1.385       .  A
C182       C1803   1.441       .  S
C183        H185   1.082       .  S
Cu186       N189   2.066       .  S
Cu187       N197   2.093       .  S
Cu188       N190   2.083       .  S
Cu188       N196   2.084       .  S
N189        N190   1.321       .  A
N189        C193   1.344       .  A
N190        C191   1.349       .  A
C191        C192   1.385       .  A
C191        H194   1.082       .  S
C192        C193   1.378       .  A
C192       C1812   1.441       .  S
C193        H195   1.082       .  S
N196        N197   1.325       .  A
N196        C200   1.344       .  A
N197        C198   1.350       .  A
C198        C199   1.389       .  A
C198        H201   1.081       .  S
C199        C200   1.381       .  A
C199       C1805   1.482       .  S
C200        H202   1.082       .  S
N203        C208   1.353       .  A
N203        C207   1.354       .  A
N203        H235   1.035       .  S
N204        C211   1.354       .  A
N204        C212   1.353       .  A
N205        C210   1.356       .  A
N205        C209   1.355       .  A
N205        H236   1.035       .  S
N206        C213   1.352       .  A
N206        C214   1.352       .  A
C207        C215   1.388       .  A
C207        C223   1.415       .  A
C208        C224   1.416       .  A
C208        C216   1.388       .  A
C209        C217   1.387       .  A
C209        C226   1.419       .  A
C210        C225   1.419       .  A
C210        C218   1.387       .  A
C211        C223   1.415       .  A
C211        C219   1.385       .  A
C212        C226   1.418       .  A
C212        C220   1.388       .  A
C213        C221   1.387       .  A
C213        C224   1.414       .  A
C214        C222   1.387       .  A
C214        C225   1.415       .  A
C215        C216   1.374       .  A
C215        H227   1.082       .  S
C216        H228   1.082       .  S
C217        C218   1.377       .  A
C217        H229   1.082       .  S
C218        H230   1.082       .  S
C219        C220   1.371       .  A
C219        H231   1.082       .  S
C220        H232   1.082       .  S
C221        C222   1.372       .  A
C221        H233   1.082       .  S
C222        H234   1.082       .  S
C223       C1804   1.455       .  S
C224       C1801   1.450       .  S
C225        C356   1.484       .  S
N237        N238   1.322       .  A
N237        C241   1.346       .  A
N237       Cu245   2.072       .  S
N238        C239   1.344       .  A
N238       Cu244   2.064       .  S
C239        C240   1.379       .  A
C239        H242   1.082       .  S
C240        C241   1.380       .  A
C240       C1802   1.435       .  S
C241        H243   1.082       .  S
Cu244       N247   2.065       .  S
Cu245       N255   2.073       .  S
Cu246       N248   2.090       .  S
Cu246       N254   2.091       .  S
N247        N248   1.324       .  A
N247        C251   1.343       .  A
N248        C249   1.349       .  A
C249        C250   1.383       .  A
C249        H252   1.082       .  S
C250        C251   1.376       .  A
C250       C1795   1.438       .  S
C251        H253   1.082       .  S
N254        N255   1.323       .  A
N254        C258   1.348       .  A
N255        C256   1.344       .  A
C256        C257   1.381       .  A
C256        H259   1.082       .  S
C257        C258   1.390       .  A
C257       C1797   1.482       .  S
C258        H260   1.081       .  S
N261        N262   1.322       .  A
N261        C265   1.347       .  A
N261       Cu269   2.067       .  S
N262        C263   1.343       .  A
N262       Cu268   2.068       .  S
C263        C264   1.378       .  A
C263        H266   1.082       .  S
C264        C265   1.380       .  A
C264       C1809   1.434       .  S
C265        H267   1.082       .  S
Cu268       N271   2.069       .  S
Cu269       N279   2.068       .  S
Cu270       N272   2.096       .  S
Cu270       N278   2.097       .  S
N271        N272   1.324       .  A
N271        C275   1.344       .  A
N272        C273   1.350       .  A
C273        C274   1.385       .  A
C273        H276   1.082       .  S
C274        C275   1.378       .  A
C274       C1789   1.443       .  S
C275        H277   1.082       .  S
N278        N279   1.324       .  A
N278        C282   1.349       .  A
N279        C280   1.343       .  A
C280        C281   1.379       .  A
C280        H283   1.082       .  S
C281        C282   1.390       .  A
C281       C1791   1.480       .  S
C282        H284   1.081       .  S
N285        C290   1.355       .  A
N285        C289   1.357       .  A
N285        H317   1.035       .  S
N286        C293   1.351       .  A
N286        C294   1.352       .  A
N287        C292   1.354       .  A
N287        C291   1.355       .  A
N287        H318   1.036       .  S
N288        C295   1.356       .  A
N288        C296   1.356       .  A
C289        C297   1.387       .  A
C289        C305   1.420       .  A
C290        C306   1.422       .  A
C290        C298   1.388       .  A
C291        C299   1.387       .  A
C291        C308   1.416       .  A
C292        C307   1.419       .  A
C292        C300   1.389       .  A
C293        C305   1.413       .  A
C293        C301   1.387       .  A
C294        C308   1.412       .  A
C294        C302   1.386       .  A
C295        C303   1.387       .  A
C295        C306   1.422       .  A
C296        C304   1.386       .  A
C296        C307   1.421       .  A
C297        C298   1.375       .  A
C297        H309   1.082       .  S
C298        H310   1.082       .  S
C299        C300   1.372       .  A
C299        H311   1.082       .  S
C300        H312   1.082       .  S
C301        C302   1.372       .  A
C301        H313   1.082       .  S
C302        H314   1.082       .  S
C303        C304   1.378       .  A
C303        H315   1.082       .  S
C304        H316   1.082       .  S
C305       C1790   1.457       .  S
C308       C1796   1.453       .  S
N319        N320   1.326       .  A
N319        C323   1.350       .  A
N319       Cu327   2.094       .  S
N320        C321   1.348       .  A
N320       Cu326   2.091       .  S
C321        C322   1.382       .  A
C321        H324   1.082       .  S
C322        C323   1.384       .  A
C322       C1785   1.448       .  S
C323        H325   1.082       .  S
Cu326       N329   2.091       .  S
Cu327       N337   2.093       .  S
Cu328       N330   2.070       .  S
Cu328       N336   2.070   1_545  S
N329        N330   1.322       .  A
N329        C333   1.349       .  A
N330        C331   1.344       .  A
C331        C332   1.382       .  A
C331        H334   1.082       .  S
C332        C333   1.387       .  A
C333        H335   1.082       .  S
N336        N337   1.323   1_565  A
N336        C340   1.344       .  A
N337        C338   1.350   1_545  A
C338        C339   1.384       .  A
C338        H341   1.082       .  S
C339        C340   1.378       .  A
C339       C1788   1.442       .  S
C340        H342   1.082       .  S
N343        N344   1.324       .  A
N343        C347   1.349       .  A
N343       Cu351   2.085       .  S
N344        C345   1.345       .  A
N344       Cu350   2.076       .  S
C345        C346   1.379       .  A
C345        H348   1.082       .  S
C346        C347   1.383       .  A
C346       C1783   1.442       .  S
C347        H349   1.082       .  S
Cu350       N353   2.076       .  S
Cu351       N361   2.085       .  S
Cu352       N354   2.082       .  S
Cu352       N360   2.082       .  S
N353        N354   1.322       .  A
N353        C357   1.347       .  A
N354        C355   1.347       .  A
C355        C356   1.384       .  A
C355        H358   1.082       .  S
C356        C357   1.383       .  A
C357        H359   1.082       .  S
N360        N361   1.325       .  A
N360        C364   1.346       .  A
N361        C362   1.347       .  A
C362        C363   1.381       .  A
C362        H365   1.082       .  S
C363        C364   1.380       .  A
C363       C1781   1.441       .  S
C364        H366   1.082       .  S
N367        N368   1.324       .  A
N367        C371   1.348       .  A
N367       Cu375   2.085       .  S
N368        C369   1.346       .  A
N368       Cu374   2.077       .  S
C369        C370   1.380       .  A
C369        H372   1.082       .  S
C370        C371   1.382       .  A
C370       C1784   1.442       .  S
C371        H373   1.082       .  S
Cu374       N377   2.076       .  S
Cu375       N385   2.085       .  S
Cu376       N378   2.075       .  S
Cu376       N384   2.076       .  S
N377        N378   1.322       .  A
N377        C381   1.345       .  A
N378        C379   1.345       .  A
C379        C380   1.382       .  A
C379        H382   1.082       .  S
C380        C381   1.387       .  A
C380       C1778   1.478       .  S
C381        H383   1.081       .  S
N384        N385   1.324       .  A
N384        C388   1.346       .  A
N385        C386   1.348       .  A
C386        C387   1.382       .  A
C386        H389   1.082       .  S
C387        C388   1.380       .  A
C387       C1787   1.442       .  S
C388        H390   1.082       .  S
O391       Cu399   2.023       .  S
O391        C401   1.278       .  A
O392       Cu399   2.024       .  S
O392        C402   1.278       .  A
O393       Cu399   2.011       .  S
O393        C403   1.276       .  A
O394       Cu399   2.009       .  S
O394        C404   1.276       .  A
O395       Cu400   2.019       .  S
O395        C404   1.278       .  A
O396       Cu400   2.019       .  S
O396        C403   1.278       .  A
O397       Cu400   2.031       .  S
O397        C402   1.279       .  A
O398       Cu400   2.031       .  S
O398        C401   1.279       .  A
Cu399      Cu400   2.376       .  S
C401       C1822   1.449       .  S
C402       C1773   1.450       .  S
C403       C1782   1.439       .  S
C404       C1775   1.439       .  S
O405       Cu413   2.028       .  S
O405        C415   1.279       .  A
O406       Cu413   2.029       .  S
O406        C416   1.279       .  A
O407       Cu413   2.018       .  S
O407        C417   1.277       .  A
O408       Cu413   2.019       .  S
O408        C418   1.278       .  A
O409       Cu414   2.008       .  S
O409        C418   1.276       .  A
O410       Cu414   2.009       .  S
O410        C417   1.276       .  A
O411       Cu414   2.023       .  S
O411        C416   1.278       .  A
O412       Cu414   2.021       .  S
O412        C415   1.278       .  A
Cu413      Cu414   2.377       .  S
C415       C1786   1.447       .  S
C416       C1771   1.448       .  S
C417       C1770   1.438       .  S
C418       C1829   1.438       .  S
O419       Cu427   2.019       .  S
O419        C429   1.277       .  A
O420       Cu427   2.019       .  S
O420        C430   1.278       .  A
O421       Cu427   2.014       .  S
O421        C431   1.277       .  A
O422       Cu427   2.015       .  S
O422        C432   1.277       .  A
O423       Cu428   2.019       .  S
O423        C432   1.277       .  A
O424       Cu428   2.021       .  S
O424        C431   1.278       .  A
O425       Cu428   2.019       .  S
O425        C430   1.277       .  A
O426       Cu428   2.022       .  S
O426        C429   1.278       .  A
Cu427      Cu428   2.377       .  S
C429       C1765   1.444       .  S
C430       C1834   1.442       .  S
C431       C1767   1.442       .  S
C432       C1818   1.440       .  S
N433        N434   1.324       .  A
N433        C437   1.350       .  A
N433       Cu441   2.089       .  S
N434        C435   1.345       .  A
N434       Cu440   2.082       .  S
C435        C436   1.379       .  A
C435        H438   1.082       .  S
C436        C437   1.384       .  A
C436       C1764   1.445       .  S
C437        H439   1.082       .  S
Cu440       N443   2.083       .  S
Cu441       N451   2.089       .  S
Cu442       N444   2.083       .  S
Cu442       N450   2.084       .  S
N443        N444   1.322       .  A
N443        C447   1.347       .  A
N444        C445   1.348       .  A
C445        C446   1.384       .  A
C445        H448   1.082       .  S
C446        C447   1.385       .  A
C446        C715   1.486       .  S
C447        H449   1.082       .  S
N450        N451   1.325       .  A
N450        C454   1.347       .  A
N451        C452   1.348       .  A
C452        C453   1.382       .  A
C452        H455   1.082       .  S
C453        C454   1.380       .  A
C453       C1768   1.444       .  S
C454        H456   1.082       .  S
N457        N458   1.326       .  A
N457        C461   1.348       .  A
N457       Cu465   2.095       .  S
N458        C459   1.350       .  A
N458       Cu464   2.098       .  S
C459        C460   1.384       .  A
C459        H462   1.082       .  S
C460        C461   1.382       .  A
C460       C1772   1.450       .  S
C461        H463   1.082       .  S
Cu464       N467   2.097       .  S
Cu465       N475   2.094       .  S
Cu466       N468   2.068       .  S
Cu466       N474   2.067       .  S
N467        N468   1.323       .  A
N467        C471   1.350       .  A
N468        C469   1.344       .  A
C469        C470   1.381       .  A
C469        H472   1.082       .  S
C470        C471   1.388       .  A
C470        C656   1.487       .  S
C471        H473   1.082       .  S
N474        N475   1.322       .  A
N474        C478   1.345       .  A
N475        C476   1.350       .  A
C476        C477   1.386   1_655  A
C476        H479   1.082       .  S
C477        C478   1.378   1_455  A
C477       C1761   1.445       .  S
C478        H480   1.082   1_655  S
N481        N482   1.324       .  A
N481        C485   1.349       .  A
N481       Cu489   2.088       .  S
N482        C483   1.345       .  A
N482       Cu488   2.077       .  S
C483        C484   1.380       .  A
C483        H486   1.082       .  S
C484        C485   1.384       .  A
C484       C1763   1.444       .  S
C485        H487   1.082       .  S
Cu488       N491   2.076       .  S
Cu489       N499   2.088       .  S
Cu490       N492   2.083       .  S
Cu490       N498   2.084       .  S
N491        N492   1.322       .  A
N491        C495   1.346       .  A
N492        C493   1.346       .  A
C493        C494   1.388       .  A
C493        H496   1.081       .  S
C494        C495   1.382       .  A
C494       C1757   1.481       .  S
C495        H497   1.082       .  S
N498        N499   1.324       .  A
N498        C502   1.348       .  A
N499        C500   1.348       .  A
C500        C501   1.382       .  A
C500        H503   1.082       .  S
C501        C502   1.382       .  A
C501       C1762   1.445       .  S
C502        H504   1.082       .  S
N505        C510   1.356       .  A
N505        C509   1.354       .  A
N505        H537   1.037       .  S
N506        C513   1.354       .  A
N506        C514   1.355       .  A
N507        C512   1.355       .  A
N507        C511   1.355       .  A
N507        H538   1.037       .  S
N508        C515   1.352       .  A
N508        C516   1.352       .  A
C509        C517   1.388       .  A
C509        C525   1.419       .  A
C510        C526   1.419       .  A
C510        C518   1.388       .  A
C511        C519   1.388       .  A
C511        C528   1.419       .  A
C512        C527   1.418       .  A
C512        C520   1.387       .  A
C513        C525   1.418       .  A
C513        C521   1.387       .  A
C514        C528   1.418       .  A
C514        C522   1.386       .  A
C515        C523   1.387       .  A
C515        C526   1.415       .  A
C516        C524   1.387       .  A
C516        C527   1.415       .  A
C517        C518   1.375       .  A
C517        H529   1.082       .  S
C518        H530   1.082       .  S
C519        C520   1.373       .  A
C519        H531   1.081       .  S
C520        H532   1.082       .  S
C521        C522   1.375       .  A
C521        H533   1.082       .  S
C522        H534   1.082       .  S
C523        C524   1.374       .  A
C523        H535   1.082       .  S
C524        H536   1.082       .  S
C525        C576   1.484       .  S
C526       C1755   1.457       .  S
C527       C1753   1.455       .  S
C528        C788   1.488       .  S
N539        N540   1.324       .  A
N539        C543   1.350       .  A
N539       Cu547   2.092       .  S
N540        C541   1.344       .  A
N540       Cu546   2.075       .  S
C541        C542   1.378       .  A
C541        H544   1.082       .  S
C542        C543   1.384       .  A
C542       C1756   1.443       .  S
C543        H545   1.082       .  S
Cu546       N549   2.074       .  S
Cu547       N557   2.092       .  S
Cu548       N550   2.070       .  S
Cu548       N556   2.071       .  S
N549        N550   1.322       .  A
N549        C553   1.346       .  A
N550        C551   1.346       .  A
C551        C552   1.379       .  A
C551        H554   1.082       .  S
C552        C553   1.381       .  A
C552       C1747   1.437       .  S
C553        H555   1.082       .  S
N556        N557   1.323       .  A
N556        C560   1.344   1_556  A
N557        C558   1.348   1_556  A
C558        C559   1.389       .  A
C558        H561   1.081       .  S
C559        C560   1.381       .  A
C559       C1749   1.481       .  S
C560        H562   1.082       .  S
N563        N564   1.324       .  A
N563        C567   1.347       .  A
N563       Cu571   2.085       .  S
N564        C565   1.346       .  A
N564       Cu570   2.075       .  S
C565        C566   1.380       .  A
C565        H568   1.082       .  S
C566        C567   1.380       .  A
C566       C1769   1.440       .  S
C567        H569   1.082       .  S
Cu570       N573   2.074       .  S
Cu571       N581   2.085       .  S
Cu572       N574   2.086       .  S
Cu572       N580   2.085   1_545  S
N573        N574   1.323       .  A
N573        C577   1.346       .  A
N574        C575   1.347       .  A
C575        C576   1.384       .  A
C575        H578   1.082       .  S
C576        C577   1.382       .  A
C577        H579   1.082       .  S
N580        N581   1.324   1_565  A
N580        C584   1.347       .  A
N581        C582   1.349   1_545  A
C582        C583   1.383       .  A
C582        H585   1.082       .  S
C583        C584   1.381       .  A
C583       C1746   1.446       .  S
C584        H586   1.082       .  S
N587        N588   1.324       .  A
N587        C591   1.350       .  A
N587       Cu595   2.096       .  S
N588        C589   1.346       .  A
N588       Cu594   2.079       .  S
C589        C590   1.379       .  A
C589        H592   1.082       .  S
C590        C591   1.384       .  A
C590       C1743   1.445       .  S
C591        H593   1.082       .  S
Cu594       N597   2.079       .  S
Cu595       N605   2.096       .  S
Cu596       N598   2.094       .  S
Cu596       N604   2.094       .  S
N597        N598   1.322       .  A
N597        C601   1.347       .  A
N598        C599   1.349       .  A
C599        C600   1.388       .  A
C599        H602   1.082       .  S
C600        C601   1.384       .  A
C600        C716   1.490       .  S
C601        H603   1.082       .  S
N604        N605   1.325       .  A
N604        C608   1.348       .  A
N605        C606   1.351       .  A
C606        C607   1.385       .  A
C606        H609   1.082       .  S
C607        C608   1.383       .  A
C607       C1774   1.451       .  S
C608        H610   1.082       .  S
N611        N612   1.324       .  A
N611        C615   1.349       .  A
N611       Cu619   2.088       .  S
N612        C613   1.346       .  A
N612       Cu618   2.080       .  S
C613        C614   1.381       .  A
C613        H616   1.082       .  S
C614        C615   1.383       .  A
C614       C1744   1.445       .  S
C615        H617   1.082       .  S
Cu618       N621   2.079       .  S
Cu619       N629   2.088       .  S
Cu620       N622   2.084       .  S
Cu620       N628   2.085       .  S
N621        N622   1.323       .  A
N621        C625   1.346       .  A
N622        C623   1.347       .  A
C623        C624   1.388       .  A
C623        H626   1.081       .  S
C624        C625   1.383       .  A
C624       C1739   1.482       .  S
C625        H627   1.082       .  S
N628        N629   1.324       .  A
N628        C632   1.347       .  A
N629        C630   1.349       .  A
C630        C631   1.383       .  A
C630        H633   1.082       .  S
C631        C632   1.382       .  A
C631       C1745   1.446       .  S
C632        H634   1.082       .  S
N635        C640   1.355       .  A
N635        C639   1.355       .  A
N635        H667   1.036       .  S
N636        C643   1.351       .  A
N636        C644   1.353       .  A
N637        C642   1.354       .  A
N637        C641   1.358       .  A
N637        H668   1.036       .  S
N638        C645   1.354       .  A
N638        C646   1.353       .  A
C639        C647   1.388       .  A
C639        C655   1.418       .  A
C640        C656   1.418       .  A
C640        C648   1.387       .  A
C641        C649   1.387       .  A
C641        C658   1.419       .  A
C642        C657   1.420       .  A
C642        C650   1.388       .  A
C643        C655   1.414       .  A
C643        C651   1.387       .  A
C644        C658   1.414       .  A
C644        C652   1.387       .  A
C645        C653   1.386       .  A
C645        C656   1.416       .  A
C646        C654   1.387       .  A
C646        C657   1.417       .  A
C647        C648   1.373       .  A
C647        H659   1.082       .  S
C648        H660   1.082       .  S
C649        C650   1.374       .  A
C649        H661   1.082       .  S
C650        H662   1.082       .  S
C651        C652   1.373       .  A
C651        H663   1.082       .  S
C652        H664   1.082       .  S
C653        C654   1.374       .  A
C653        H665   1.082       .  S
C654        H666   1.082       .  S
C655       C1748   1.452       .  S
C657        C764   1.481       .  S
C658       C1737   1.461       .  S
N669        N670   1.323       .  A
N669        C673   1.349       .  A
N669       Cu677   2.087       .  S
N670        C671   1.344       .  A
N670       Cu676   2.072       .  S
C671        C672   1.378       .  A
C671        H674   1.082       .  S
C672        C673   1.384       .  A
C672       C1731   1.442       .  S
C673        H675   1.082       .  S
Cu676       N679   2.073       .  S
Cu677       N687   2.088       .  S
Cu678       N680   2.102       .  S
Cu678       N686   2.103       .  S
N679        N680   1.324       .  A
N679        C683   1.346       .  A
N680        C681   1.351       .  A
C681        C682   1.386       .  A
C681        H684   1.082       .  S
C682        C683   1.379       .  A
C682       C1738   1.447       .  S
C683        H685   1.082       .  S
N686        N687   1.325       .  A
N686        C690   1.351   1_556  A
N687        C688   1.346   1_556  A
C688        C689   1.383       .  A
C688        H691   1.082       .  S
C689        C690   1.391       .  A
C689       C1733   1.488       .  S
C690        H692   1.081       .  S
N693        C698   1.355       .  A
N693        C697   1.353       .  A
N693        H725   1.036       .  S
N694        C701   1.354       .  A
N694        C702   1.354       .  A
N695        C700   1.356       .  A
N695        C699   1.357       .  A
N695        H726   1.035       .  S
N696        C703   1.355       .  A
N696        C704   1.353       .  A
C697        C705   1.388       .  A
C697        C713   1.416       .  A
C698        C714   1.415       .  A
C698        C706   1.387       .  A
C699        C707   1.387       .  A
C699        C716   1.422       .  A
C700        C715   1.421       .  A
C700        C708   1.387       .  A
C701        C713   1.417       .  A
C701        C709   1.386       .  A
C702        C716   1.419       .  A
C702        C710   1.387       .  A
C703        C711   1.386       .  A
C703        C714   1.416       .  A
C704        C712   1.388       .  A
C704        C715   1.419       .  A
C705        C706   1.376       .  A
C705        H717   1.082       .  S
C706        H718   1.082       .  S
C707        C708   1.379       .  A
C707        H719   1.082       .  S
C708        H720   1.082       .  S
C709        C710   1.373       .  A
C709        H721   1.082       .  S
C710        H722   1.082       .  S
C711        C712   1.372       .  A
C711        H723   1.082       .  S
C712        H724   1.082       .  S
C713       C1732   1.455       .  S
C714       C1730   1.460       .  S
N727        N728   1.325       .  A
N727        C731   1.352       .  A
N727       Cu735   2.105       .  S
N728        C729   1.345       .  A
N728       Cu734   2.073       .  S
C729        C730   1.378       .  A
C729        H732   1.082       .  S
C730        C731   1.387       .  A
C730       C1729   1.446       .  S
C731        H733   1.082       .  S
Cu734       N737   2.072       .  S
Cu735       N745   2.105       .  S
Cu736       N738   2.078       .  S
Cu736       N744   2.079       .  S
N737        N738   1.322       .  A
N737        C741   1.345       .  A
N738        C739   1.348       .  A
C739        C740   1.382       .  A
C739        H742   1.082       .  S
C740        C741   1.380       .  A
C740       C1754   1.441       .  S
C741        H743   1.082       .  S
N744        N745   1.324       .  A
N744        C748   1.344   1_556  A
N745        C746   1.352   1_556  A
C746        C747   1.392       .  A
C746        H749   1.081       .  S
C747        C748   1.380       .  A
C747       C1725   1.485       .  S
C748        H750   1.082       .  S
N751        N752   1.321       .  A
N751        C755   1.350       .  A
N751       Cu759   2.084       .  S
N752        C753   1.344   1_655  A
N752       Cu758   2.069       .  S
C753        C754   1.379       .  A
C753        H756   1.082       .  S
C754        C755   1.385   1_455  A
C754       C1723   1.445       .  S
C755        H757   1.082       .  S
Cu758       N761   2.068       .  S
Cu759       N769   2.085       .  S
Cu760       N762   2.086       .  S
Cu760       N768   2.088       .  S
N761        N762   1.322       .  A
N761        C765   1.343       .  A
N762        C763   1.349       .  A
C763        C764   1.386       .  A
C763        H766   1.082       .  S
C764        C765   1.379       .  A
C765        H767   1.082       .  S
N768        N769   1.326       .  A
N768        C772   1.348       .  A
N769        C770   1.346       .  A
C770        C771   1.379       .  A
C770        H773   1.082       .  S
C771        C772   1.381       .  A
C771       C1776   1.441       .  S
C772        H774   1.082       .  S
N775        N776   1.323       .  A
N775        C779   1.349   1_545  A
N775       Cu783   2.086       .  S
N776        C777   1.348   1_545  A
N776       Cu782   2.086       .  S
C777        C778   1.383       .  A
C777        H780   1.082       .  S
C778        C779   1.383       .  A
C778       C1721   1.447       .  S
C779        H781   1.082       .  S
Cu782       N785   2.086       .  S
Cu783       N793   2.086       .  S
Cu784       N786   2.092       .  S
Cu784       N792   2.093       .  S
N785        N786   1.323       .  A
N785        C789   1.346       .  A
N786        C787   1.350       .  A
C787        C788   1.388       .  A
C787        H790   1.082       .  S
C788        C789   1.384       .  A
C789        H791   1.082       .  S
N792        N793   1.325       .  A
N792        C796   1.348       .  A
N793        C794   1.348       .  A
C794        C795   1.381       .  A
C794        H797   1.082       .  S
C795        C796   1.383       .  A
C795       C1766   1.446       .  S
C796        H798   1.082       .  S
N799        N800   1.324       .  A
N799        C803   1.351       .  A
N799       Cu807   2.099       .  S
N800        C801   1.346       .  A
N800       Cu806   2.080       .  S
C801        C802   1.380       .  A
C801        H804   1.082       .  S
C802        C803   1.386       .  A
C802       C1722   1.447       .  S
C803        H805   1.082       .  S
Cu806       N809   2.079       .  S
Cu807       N817   2.099       .  S
Cu808       N810   2.083       .  S
Cu808       N816   2.083       .  S
N809        N810   1.321       .  A
N809        C813   1.347       .  A
N810        C811   1.348       .  A
C811        C812   1.386       .  A
C811        H814   1.082       .  S
C812        C813   1.389       .  A
C812       C1717   1.487       .  S
C813        H815   1.081       .  S
N816        N817   1.325       .  A
N816        C820   1.346       .  A
N817        C818   1.351       .  A
C818        C819   1.385       .  A
C818        H821   1.082       .  S
C819        C820   1.379       .  A
C819       C1724   1.445       .  S
C820        H822   1.082       .  S
N823        N824   1.323       .  A
N823        C827   1.350       .  A
N823       Cu831   2.086   1_655  S
N824        C825   1.344       .  A
N824       Cu830   2.072       .  S
C825        C826   1.378       .  A
C825        H828   1.082       .  S
C826        C827   1.384       .  A
C826       C1715   1.442       .  S
C827        H829   1.082       .  S
Cu830       N833   2.072   1_655  S
Cu831       N841   2.087       .  S
Cu832       N834   2.083       .  S
Cu832       N840   2.083       .  S
N833        N834   1.322       .  A
N833        C837   1.346       .  A
N834        C835   1.347       .  A
C835        C836   1.385       .  A
C835        H838   1.082       .  S
C836        C837   1.383       .  A
C836       C1048   1.485       .  S
C837        H839   1.082       .  S
N840        N841   1.325       .  A
N840        C844   1.347       .  A
N841        C842   1.347       .  A
C842        C843   1.381       .  A
C842        H845   1.082       .  S
C843        C844   1.380       .  A
C843       C1713   1.441       .  S
C844        H846   1.082       .  S
N847        N848   1.323       .  A
N847        C851   1.349   1_565  A
N847       Cu855   2.088       .  S
N848        C849   1.344   1_565  A
N848       Cu854   2.069       .  S
C849        C850   1.378       .  A
C849        H852   1.082       .  S
C850        C851   1.384       .  A
C850       C1711   1.441       .  S
C851        H853   1.082       .  S
Cu854       N857   2.068       .  S
Cu855       N865   2.088       .  S
Cu856       N858   2.082       .  S
Cu856       N864   2.082       .  S
N857        N858   1.321       .  A
N857        C861   1.344       .  A
N858        C859   1.348       .  A
C859        C860   1.386       .  A
C859        H862   1.082       .  S
C860        C861   1.381       .  A
C860        C989   1.482       .  S
C861        H863   1.082       .  S
N864        N865   1.325       .  A
N864        C868   1.346       .  A
N865        C866   1.348       .  A
C866        C867   1.382       .  A
C866        H869   1.082       .  S
C867        C868   1.379       .  A
C867       C1710   1.443       .  S
C868        H870   1.082       .  S
N871        N872   1.324       .  A
N871        C875   1.346       .  A
N871       Cu879   2.077       .  S
N872        C873   1.348       .  A
N872       Cu878   2.088       .  S
C873        C874   1.382       .  A
C873        H876   1.082       .  S
C874        C875   1.379       .  A
C874       C1712   1.442       .  S
C875        H877   1.082       .  S
Cu878       N881   2.089       .  S
Cu879       N889   2.076       .  S
Cu880       N882   2.075       .  S
Cu880       N888   2.076       .  S
N881        N882   1.323       .  A
N881        C885   1.348       .  A
N882        C883   1.344       .  A
C883        C884   1.380       .  A
C883        H886   1.082       .  S
C884        C885   1.390       .  A
C884       C1792   1.481       .  S
C885        H887   1.081       .  S
N888        N889   1.322       .  A
N888        C892   1.347       .  A
N889        C890   1.346       .  A
C890        C891   1.381       .  A
C890        H893   1.082       .  S
C891        C892   1.382       .  A
C891       C1716   1.442       .  S
C892        H894   1.082       .  S
N895        N896   1.324       .  A
N895        C899   1.350       .  A
N895       Cu903   2.093       .  S
N896        C897   1.345       .  A
N896       Cu902   2.078       .  S
C897        C898   1.380       .  A
C897        H900   1.082       .  S
C898        C899   1.385       .  A
C898       C1707   1.446       .  S
C899        H901   1.082       .  S
Cu902       N905   2.077       .  S
Cu903       N913   2.093       .  S
Cu904       N906   2.081       .  S
Cu904       N912   2.082       .  S
N905        N906   1.322       .  A
N905        C909   1.346       .  A
N906        C907   1.347       .  A
C907        C908   1.386       .  A
C907        H910   1.082       .  S
C908        C909   1.383       .  A
C908       C1106   1.483       .  S
C909        H911   1.082       .  S
N912        N913   1.325       .  A
N912        C916   1.346       .  A
N913        C914   1.349       .  A
C914        C915   1.383       .  A
C914        H917   1.082       .  S
C915        C916   1.380       .  A
C915       C1706   1.444       .  S
C916        H918   1.082       .  S
N919        N920   1.323       .  A
N919        C923   1.348       .  A
N919       Cu927   2.091       .  S
N920        C921   1.344       .  A
N920       Cu926   2.060       .  S
C921        C922   1.377       .  A
C921        H924   1.082       .  S
C922        C923   1.384       .  A
C922       C1701   1.440       .  S
C923        H925   1.082       .  S
Cu926       N929   2.060       .  S
Cu927       N937   2.091       .  S
Cu928       N930   2.092       .  S
Cu928       N936   2.093       .  S
N929        N930   1.322       .  A
N929        C933   1.344       .  A
N930        C931   1.347       .  A
C931        C932   1.387       .  A
C931        H934   1.082       .  S
C932        C933   1.379       .  A
C932        C990   1.481       .  S
C933        H935   1.082       .  S
N936        N937   1.325       .  A
N936        C940   1.349   1_565  A
N937        C938   1.349   1_565  A
C938        C939   1.383       .  A
C938        H941   1.082       .  S
C939        C940   1.384       .  A
C939       C1703   1.449       .  S
C940        H942   1.082       .  S
N943        N944   1.325       .  A
N943        C947   1.351       .  A
N943       Cu951   2.101       .  S
N944        C945   1.346       .  A
N944       Cu950   2.080       .  S
C945        C946   1.379       .  A
C945        H948   1.082       .  S
C946        C947   1.385       .  A
C946       C1708   1.446       .  S
C947        H949   1.082       .  S
Cu950       N953   2.079       .  S
Cu951       N961   2.101       .  S
Cu952       N954   2.079       .  S
Cu952       N960   2.080       .  S
N953        N954   1.321       .  A
N953        C957   1.347       .  A
N954        C955   1.346       .  A
C955        C956   1.389       .  A
C955        H958   1.081       .  S
C956        C957   1.385       .  A
C956       C1806   1.485       .  S
C957        H959   1.082       .  S
N960        N961   1.324       .  A
N960        C964   1.346       .  A
N961        C962   1.351       .  A
C962        C963   1.386       .  A
C962        H965   1.082       .  S
C963        C964   1.380       .  A
C963       C1704   1.449       .  S
C964        H966   1.082       .  S
N967        C972   1.353       .  A
N967        C971   1.354       .  A
N967        H999   1.035       .  S
N968        C975   1.353       .  A
N968        C976   1.352       .  A
N969        C974   1.355       .  A
N969        C973   1.353       .  A
N969       H1000   1.034       .  S
N970        C977   1.351       .  A
N970        C978   1.352       .  A
C971        C979   1.388       .  A
C971        C987   1.415       .  A
C972        C988   1.415       .  A
C972        C980   1.388       .  A
C973        C981   1.388       .  A
C973        C990   1.418       .  A
C974        C989   1.418       .  A
C974        C982   1.387       .  A
C975        C987   1.414       .  A
C975        C983   1.385       .  A
C976        C990   1.418       .  A
C976        C984   1.388       .  A
C977        C985   1.387       .  A
C977        C988   1.412       .  A
C978        C986   1.388       .  A
C978        C989   1.415       .  A
C979        C980   1.374       .  A
C979        H991   1.082       .  S
C980        H992   1.082       .  S
C981        C982   1.378       .  A
C981        H993   1.082       .  S
C982        H994   1.082       .  S
C983        C984   1.369       .  A
C983        H995   1.082       .  S
C984        H996   1.082       .  S
C985        C986   1.370       .  A
C985        H997   1.082       .  S
C986        H998   1.082       .  S
C987       C1700   1.453       .  S
C988       C1698   1.448       .  S
N1001      N1002   1.322       .  A
N1001      C1005   1.347       .  A
N1001     Cu1009   2.075       .  S
N1002      C1003   1.342       .  A
N1002     Cu1008   2.062       .  S
C1003      C1004   1.376       .  A
C1003      H1006   1.082       .  S
C1004      C1005   1.381       .  A
C1004      C1695   1.434       .  S
C1005      H1007   1.082       .  S
Cu1008     N1011   2.063       .  S
Cu1009     N1019   2.076       .  S
Cu1010     N1012   2.073       .  S
Cu1010     N1018   2.074       .  S
N1011      N1012   1.322       .  A
N1011      C1015   1.343       .  A
N1012      C1013   1.346       .  A
C1013      C1014   1.379       .  A
C1013      H1016   1.082       .  S
C1014      C1015   1.377       .  A
C1014      C1697   1.433       .  S
C1015      H1017   1.082       .  S
N1018      N1019   1.323       .  A
N1018      C1022   1.345       .  A
N1019      C1020   1.344       .  A
C1020      C1021   1.382       .  A
C1020      H1023   1.082       .  S
C1021      C1022   1.386       .  A
C1021      C1777   1.478       .  S
C1022      H1024   1.081       .  S
N1025      C1030   1.355       .  A
N1025      C1029   1.356       .  A
N1025      H1057   1.039       .  S
N1026      C1033   1.353       .  A
N1026      C1034   1.352       .  A
N1027      C1032   1.357       .  A
N1027      C1031   1.355       .  A
N1027      H1058   1.031       .  S
N1028      C1035   1.350       .  A
N1028      C1036   1.352       .  A
C1029      C1037   1.388       .  A
C1029      C1045   1.416       .  A
C1030      C1046   1.414       .  A
C1030      C1038   1.387       .  A
C1031      C1039   1.388       .  A
C1031      C1048   1.424       .  A
C1032      C1047   1.424       .  A
C1032      C1040   1.387       .  A
C1033      C1045   1.415       .  A
C1033      C1041   1.385       .  A
C1034      C1048   1.422       .  A
C1034      C1042   1.389       .  A
C1035      C1043   1.386       .  A
C1035      C1046   1.411       .  A
C1036      C1044   1.388       .  A
C1036      C1047   1.419       .  A
C1037      C1038   1.371       .  A
C1037      H1049   1.082       .  S
C1038      H1050   1.082       .  S
C1039      C1040   1.378       .  A
C1039      H1051   1.082       .  S
C1040      H1052   1.082       .  S
C1041      C1042   1.374       .  A
C1041      H1053   1.082       .  S
C1042      H1054   1.082       .  S
C1043      C1044   1.370       .  A
C1043      H1055   1.082       .  S
C1044      H1056   1.082       .  S
C1045      C1693   1.457       .  S
C1046      C1691   1.449       .  S
C1047      C1178   1.488       .  S
N1059      N1060   1.323       .  A
N1059      C1063   1.350       .  A
N1059     Cu1067   2.092       .  S
N1060      C1061   1.342       .  A
N1060     Cu1066   2.056       .  S
C1061      C1062   1.375       .  A
C1061      H1064   1.082       .  S
C1062      C1063   1.385       .  A
C1062      C1699   1.438       .  S
C1063      H1065   1.082       .  S
Cu1066     N1069   2.056       .  S
Cu1067     N1077   2.093       .  S
Cu1068     N1070   2.076       .  S
Cu1068     N1076   2.077       .  S
N1069      N1070   1.321       .  A
N1069      C1073   1.342       .  A
N1070      C1071   1.347       .  A
C1071      C1072   1.382       .  A
C1071      H1074   1.082       .  S
C1072      C1073   1.376       .  A
C1072      C1692   1.434       .  S
C1073      H1075   1.082       .  S
N1076      N1077   1.324       .  A
N1076      C1080   1.345       .  A
N1077      C1078   1.348       .  A
C1078      C1079   1.389       .  A
C1078      H1081   1.081       .  S
C1079      C1080   1.381       .  A
C1079      C1814   1.482       .  S
C1080      H1082   1.082       .  S
N1083      C1088   1.351       .  A
N1083      C1087   1.351       .  A
N1083      H1115   1.037       .  S
N1084      C1091   1.353       .  A
N1084      C1092   1.351       .  A
N1085      C1090   1.356       .  A
N1085      C1089   1.355       .  A
N1085      H1116   1.038       .  S
N1086      C1093   1.352       .  A
N1086      C1094   1.351       .  A
C1087      C1095   1.387       .  A
C1087      C1103   1.411       .  A
C1088      C1104   1.410       .  A
C1088      C1096   1.387       .  A
C1089      C1097   1.388       .  A
C1089      C1106   1.420       .  A
C1090      C1105   1.420       .  A
C1090      C1098   1.386       .  A
C1091      C1103   1.412       .  A
C1091      C1099   1.385       .  A
C1092      C1106   1.416       .  A
C1092      C1100   1.389       .  A
C1093      C1101   1.385       .  A
C1093      C1104   1.411       .  A
C1094      C1102   1.388       .  A
C1094      C1105   1.415       .  A
C1095      C1096   1.375       .  A
C1095      H1107   1.082       .  S
C1096      H1108   1.082       .  S
C1097      C1098   1.381       .  A
C1097      H1109   1.082       .  S
C1098      H1110   1.082       .  S
C1099      C1100   1.372       .  A
C1099      H1111   1.082       .  S
C1100      H1112   1.082       .  S
C1101      C1102   1.371       .  A
C1101      H1113   1.082       .  S
C1102      H1114   1.082       .  S
C1103      C1690   1.450       .  S
C1104      C1696   1.448       .  S
C1105      C1154   1.486       .  S
N1117      N1118   1.322       .  A
N1117      C1121   1.347       .  A
N1117     Cu1125   2.069       .  S
N1118      C1119   1.343       .  A
N1118     Cu1124   2.068       .  S
C1119      C1120   1.378       .  A
C1119      H1122   1.082       .  S
C1120      C1121   1.381       .  A
C1120      C1689   1.436       .  S
C1121      H1123   1.082       .  S
Cu1124     N1127   2.068       .  S
Cu1125     N1135   2.070       .  S
Cu1126     N1128   2.089       .  S
Cu1126     N1134   2.090       .  S
N1127      N1128   1.323       .  A
N1127      C1131   1.344       .  A
N1128      C1129   1.350       .  A
C1129      C1130   1.385       .  A
C1129      H1132   1.082       .  S
C1130      C1131   1.378       .  A
C1130      C1694   1.443       .  S
C1131      H1133   1.082       .  S
N1134      N1135   1.324       .  A
N1134      C1138   1.347       .  A
N1135      C1136   1.343       .  A
C1136      C1137   1.379       .  A
C1136      H1139   1.082       .  S
C1137      C1138   1.388       .  A
C1137      C1826   1.476       .  S
C1138      H1140   1.081       .  S
N1141      N1142   1.325       .  A
N1141      C1145   1.349       .  A
N1141     Cu1149   2.088       .  S
N1142      C1143   1.345       .  A
N1142     Cu1148   2.082       .  S
C1143      C1144   1.379       .  A
C1143      H1146   1.082       .  S
C1144      C1145   1.383       .  A
C1144      C1688   1.443       .  S
C1145      H1147   1.082       .  S
Cu1148     N1151   2.082       .  S
Cu1149     N1159   2.088       .  S
Cu1150     N1152   2.083       .  S
Cu1150     N1158   2.084       .  S
N1151      N1152   1.321       .  A
N1151      C1155   1.348       .  A
N1152      C1153   1.347       .  A
C1153      C1154   1.386       .  A
C1153      H1156   1.082       .  S
C1154      C1155   1.386       .  A
C1155      H1157   1.082       .  S
N1158      N1159   1.325       .  A
N1158      C1162   1.347       .  A
N1159      C1160   1.349       .  A
C1160      C1161   1.383       .  A
C1160      H1163   1.082       .  S
C1161      C1162   1.381       .  A
C1161      C1685   1.445       .  S
C1162      H1164   1.082       .  S
N1165      N1166   1.326       .  A
N1165      C1169   1.349       .  A
N1165     Cu1173   2.092       .  S
N1166      C1167   1.349       .  A
N1166     Cu1172   2.094       .  S
C1167      C1168   1.383       .  A
C1167      H1170   1.082       .  S
C1168      C1169   1.382       .  A
C1168      C1681   1.448       .  S
C1169      H1171   1.082       .  S
Cu1172     N1175   2.093       .  S
Cu1173     N1183   2.091   1_455  S
Cu1174     N1176   2.079       .  S
Cu1174     N1182   2.079   1_455  S
N1175      N1176   1.323       .  A
N1175      C1179   1.350       .  A
N1176      C1177   1.346       .  A
C1177      C1178   1.383       .  A
C1177      H1180   1.082       .  S
C1178      C1179   1.387       .  A
C1179      H1181   1.082       .  S
N1182      N1183   1.323       .  A
N1182      C1186   1.346       .  A
N1183      C1184   1.350       .  A
C1184      C1185   1.384       .  A
C1184      H1187   1.082       .  S
C1185      C1186   1.381       .  A
C1185      C1684   1.446       .  S
C1186      H1188   1.082       .  S
N1189      N1190   1.326       .  A
N1189      C1193   1.349       .  A
N1189     Cu1197   2.094       .  S
N1190      C1191   1.346       .  A
N1190     Cu1196   2.085       .  S
C1191      C1192   1.380       .  A
C1191      H1194   1.082       .  S
C1192      C1193   1.382       .  A
C1192      C1687   1.443       .  S
C1193      H1195   1.082       .  S
Cu1196     N1199   2.084       .  S
Cu1197     N1207   2.093       .  S
Cu1198     N1200   2.073       .  S
Cu1198     N1206   2.074       .  S
N1199      N1200   1.321       .  A
N1199      C1203   1.349       .  A
N1200      C1201   1.344       .  A
C1201      C1202   1.381       .  A
C1201      H1204   1.082       .  S
C1202      C1203   1.390       .  A
C1202      C1798   1.482       .  S
C1203      H1205   1.081       .  S
N1206      N1207   1.323       .  A
N1206      C1210   1.345       .  A
N1207      C1208   1.351       .  A
C1208      C1209   1.386       .  A
C1208      H1211   1.082       .  S
C1209      C1210   1.379       .  A
C1209      C1683   1.446       .  S
C1210      H1212   1.082       .  S
O1213     Cu1221   2.022       .  S
O1213      C1223   1.278       .  A
O1214     Cu1221   2.018       .  S
O1214      C1224   1.278       .  A
O1215     Cu1221   2.015       .  S
O1215      C1225   1.277       .  A
O1216     Cu1221   2.019       .  S
O1216      C1226   1.278       .  A
O1217     Cu1222   2.010       .  S
O1217      C1226   1.276       .  A
O1218     Cu1222   2.005       .  S
O1218      C1225   1.276       .  A
O1219     Cu1222   2.013       .  S
O1219      C1224   1.277       .  A
O1220     Cu1222   2.015       .  S
O1220      C1223   1.277       .  A
Cu1221    Cu1222   2.378       .  S
C1223      C1705   1.442       .  S
C1224      C1678   1.440       .  S
C1225      C1679   1.435       .  S
C1226      C1714   1.439       .  S
O1227     Cu1235   2.018       .  S
O1227      C1237   1.277       .  A
O1228     Cu1235   2.020       .  S
O1228      C1238   1.278       .  A
O1229     Cu1235   2.021       .  S
O1229      C1239   1.278       .  A
O1230     Cu1235   2.017       .  S
O1230      C1240   1.277       .  A
O1231     Cu1236   2.017       .  S
O1231      C1240   1.277       .  A
O1232     Cu1236   2.021       .  S
O1232      C1239   1.278       .  A
O1233     Cu1236   2.027       .  S
O1233      C1238   1.279       .  A
O1234     Cu1236   2.024       .  S
O1234      C1237   1.278       .  A
Cu1235    Cu1236   2.376       .  S
C1237      C1686   1.443       .  S
C1238      C1676   1.447       .  S
C1239      C1673   1.444       .  S
C1240      C1709   1.441       .  S
N1241      N1242   1.322       .  A
N1241      C1245   1.347       .  A
N1241     Cu1249   2.073   1_655  S
N1242      C1243   1.346       .  A
N1242     Cu1248   2.077   1_655  S
C1243      C1244   1.380       .  A
C1243      H1246   1.082       .  S
C1244      C1245   1.381       .  A
C1244      C1672   1.440       .  S
C1245      H1247   1.082       .  S
Cu1248     N1251   2.077       .  S
Cu1249     N1259   2.073       .  S
Cu1250     N1252   2.095       .  S
Cu1250     N1258   2.094       .  S
N1251      N1252   1.323       .  A
N1251      C1255   1.345       .  A
N1252      C1253   1.349       .  A
C1253      C1254   1.389       .  A
C1253      H1256   1.082       .  S
C1254      C1255   1.383       .  A
C1254      C1431   1.487       .  S
C1255      H1257   1.082       .  S
N1258      N1259   1.325       .  A
N1258      C1262   1.348       .  A
N1259      C1260   1.346       .  A
C1260      C1261   1.378       .  A
C1260      H1263   1.082       .  S
C1261      C1262   1.383       .  A
C1261      C1677   1.442       .  S
C1262      H1264   1.082       .  S
N1265      N1266   1.323       .  A
N1265      C1269   1.351   1_565  A
N1265     Cu1273   2.095       .  S
N1266      C1267   1.344   1_565  A
N1266     Cu1272   2.073       .  S
C1267      C1268   1.378       .  A
C1267      H1270   1.082       .  S
C1268      C1269   1.385       .  A
C1268      C1669   1.444       .  S
C1269      H1271   1.082       .  S
Cu1272     N1275   2.074       .  S
Cu1273     N1283   2.095       .  S
Cu1274     N1276   2.095       .  S
Cu1274     N1282   2.096       .  S
N1275      N1276   1.322       .  A
N1275      C1279   1.345       .  A
N1276      C1277   1.350       .  A
C1277      C1278   1.388       .  A
C1277      H1280   1.082       .  S
C1278      C1279   1.383       .  A
C1278      C1490   1.487       .  S
C1279      H1281   1.082       .  S
N1282      N1283   1.326       .  A
N1282      C1286   1.349       .  A
N1283      C1284   1.349       .  A
C1284      C1285   1.383       .  A
C1284      H1287   1.082       .  S
C1285      C1286   1.383       .  A
C1285      C1675   1.449       .  S
C1286      H1288   1.082       .  S
N1289      N1290   1.323       .  A
N1289      C1293   1.348       .  A
N1289     Cu1297   2.084       .  S
N1290      C1291   1.346       .  A
N1290     Cu1296   2.080       .  S
C1291      C1292   1.381       .  A
C1291      H1294   1.082       .  S
C1292      C1293   1.382       .  A
C1292      C1670   1.444       .  S
C1293      H1295   1.082       .  S
Cu1296     N1299   2.079       .  S
Cu1297     N1307   2.085       .  S
Cu1298     N1300   2.077       .  S
Cu1298     N1306   2.077       .  S
N1299      N1300   1.322       .  A
N1299      C1303   1.345       .  A
N1300      C1301   1.347       .  A
C1301      C1302   1.388       .  A
C1301      H1304   1.081       .  S
C1302      C1303   1.382       .  A
C1302      C1750   1.481       .  S
C1303      H1305   1.082       .  S
N1306      N1307   1.324       .  A
N1306      C1310   1.345       .  A
N1307      C1308   1.348       .  A
C1308      C1309   1.382       .  A
C1308      H1311   1.082       .  S
C1309      C1310   1.378       .  A
C1309      C1671   1.440       .  S
C1310      H1312   1.082       .  S
N1313      N1314   1.323       .  A
N1313      C1317   1.347       .  A
N1313     Cu1321   2.072       .  S
N1314      C1315   1.346       .  A
N1314     Cu1320   2.081       .  S
C1315      C1316   1.381       .  A
C1315      H1318   1.082       .  S
C1316      C1317   1.381       .  A
C1316      C1668   1.441       .  S
C1317      H1319   1.082       .  S
Cu1320     N1323   2.081       .  S
Cu1321     N1331   2.072       .  S
Cu1322     N1324   2.084       .  S
Cu1322     N1330   2.084       .  S
N1323      N1324   1.323       .  A
N1323      C1327   1.347       .  A
N1324      C1325   1.347       .  A
C1325      C1326   1.385       .  A
C1325      H1328   1.082       .  S
C1326      C1327   1.383       .  A
C1326      C1523   1.485       .  S
C1327      H1329   1.082       .  S
N1330      N1331   1.324       .  A
N1330      C1334   1.347       .  A
N1331      C1332   1.345       .  A
C1332      C1333   1.378       .  A
C1332      H1335   1.082       .  S
C1333      C1334   1.381       .  A
C1333      C1680   1.437       .  S
C1334      H1336   1.082       .  S
N1337      N1338   1.325       .  A
N1337      C1341   1.350       .  A
N1337     Cu1345   2.098       .  S
N1338      C1339   1.348       .  A
N1338     Cu1344   2.092       .  S
C1339      C1340   1.382       .  A
C1339      H1342   1.082       .  S
C1340      C1341   1.385       .  A
C1340      C1664   1.450       .  S
C1341      H1343   1.082       .  S
Cu1344     N1347   2.092       .  S
Cu1345     N1355   2.098   1_565  S
Cu1346     N1348   2.074       .  S
Cu1346     N1354   2.075   1_565  S
N1347      N1348   1.322       .  A
N1347      C1351   1.349       .  A
N1348      C1349   1.345       .  A
C1349      C1350   1.383       .  A
C1349      H1352   1.082       .  S
C1350      C1351   1.387       .  A
C1350      C1489   1.488       .  S
C1351      H1353   1.082       .  S
N1354      N1355   1.324       .  A
N1354      C1358   1.346       .  A
N1355      C1356   1.350       .  A
C1356      C1357   1.385       .  A
C1356      H1359   1.082       .  S
C1357      C1358   1.379       .  A
C1357      C1665   1.446       .  S
C1358      H1360   1.082       .  S
N1361      N1362   1.323       .  A
N1361      C1365   1.349       .  A
N1361     Cu1369   2.087       .  S
N1362      C1363   1.344       .  A
N1362     Cu1368   2.068       .  S
C1363      C1364   1.378       .  A
C1363      H1366   1.082       .  S
C1364      C1365   1.384       .  A
C1364      C1667   1.441       .  S
C1365      H1367   1.082       .  S
Cu1368     N1371   2.069       .  S
Cu1369     N1379   2.089       .  S
Cu1370     N1372   2.097       .  S
Cu1370     N1378   2.098       .  S
N1371      N1372   1.322       .  A
N1371      C1375   1.344       .  A
N1372      C1373   1.350       .  A
C1373      C1374   1.393       .  A
C1373      H1376   1.081       .  S
C1374      C1375   1.381       .  A
C1374      C1726   1.486       .  S
C1375      H1377   1.082       .  S
N1378      N1379   1.326       .  A
N1378      C1382   1.348       .  A
N1379      C1380   1.348       .  A
C1380      C1381   1.381       .  A
C1380      H1383   1.082       .  S
C1381      C1382   1.383       .  A
C1381      C1666   1.446       .  S
C1382      H1384   1.082       .  S
N1385      N1386   1.322       .  A
N1385      C1389   1.350       .  A
N1385     Cu1393   2.088       .  S
N1386      C1387   1.344       .  A
N1386     Cu1392   2.070       .  S
C1387      C1388   1.378       .  A
C1387      H1390   1.082       .  S
C1388      C1389   1.385       .  A
C1388      C1659   1.442       .  S
C1389      H1391   1.082       .  S
Cu1392     N1395   2.071       .  S
Cu1393     N1403   2.089       .  S
Cu1394     N1396   2.090       .  S
Cu1394     N1402   2.091       .  S
N1395      N1396   1.324       .  A
N1395      C1399   1.344       .  A
N1396      C1397   1.349       .  A
C1397      C1398   1.384       .  A
C1397      H1400   1.082       .  S
C1398      C1399   1.378       .  A
C1398      C1661   1.441       .  S
C1399      H1401   1.082       .  S
N1402      N1403   1.324       .  A
N1402      C1406   1.350   1_554  A
N1403      C1404   1.346   1_554  A
C1404      C1405   1.383       .  A
C1404      H1407   1.082       .  S
C1405      C1406   1.389       .  A
C1405      C1718   1.485       .  S
C1406      H1408   1.081       .  S
N1409      C1414   1.352       .  A
N1409      C1413   1.353       .  A
N1409      H1441   1.039       .  S
N1410      C1417   1.355       .  A
N1410      C1418   1.353       .  A
N1411      C1416   1.358       .  A
N1411      C1415   1.356       .  A
N1411      H1442   1.035       .  S
N1412      C1419   1.351       .  A
N1412      C1420   1.351       .  A
C1413      C1421   1.388       .  A
C1413      C1429   1.412       .  A
C1414      C1430   1.410       .  A
C1414      C1422   1.387       .  A
C1415      C1423   1.389       .  A
C1415      C1432   1.425       .  A
C1416      C1431   1.422       .  A
C1416      C1424   1.386       .  A
C1417      C1429   1.414       .  A
C1417      C1425   1.384       .  A
C1418      C1432   1.423       .  A
C1418      C1426   1.390       .  A
C1419      C1427   1.385       .  A
C1419      C1430   1.408       .  A
C1420      C1428   1.389       .  A
C1420      C1431   1.416       .  A
C1421      C1422   1.372       .  A
C1421      H1433   1.082       .  S
C1422      H1434   1.082       .  S
C1423      C1424   1.380       .  A
C1423      H1435   1.082       .  S
C1424      H1436   1.082       .  S
C1425      C1426   1.373       .  A
C1425      H1437   1.082       .  S
C1426      H1438   1.081       .  S
C1427      C1428   1.370       .  A
C1427      H1439   1.082       .  S
C1428      H1440   1.082       .  S
C1429      C1662   1.455       .  S
C1430      C1657   1.446       .  S
C1432      C1596   1.490       .  S
N1443      N1444   1.323       .  A
N1443      C1447   1.348       .  A
N1443     Cu1451   2.082       .  S
N1444      C1445   1.342       .  A
N1444     Cu1450   2.063       .  S
C1445      C1446   1.376       .  A
C1445      H1448   1.082       .  S
C1446      C1447   1.382       .  A
C1446      C1656   1.436       .  S
C1447      H1449   1.082       .  S
Cu1450     N1453   2.063       .  S
Cu1451     N1461   2.083       .  S
Cu1452     N1454   2.080       .  S
Cu1452     N1460   2.082       .  S
N1453      N1454   1.322       .  A
N1453      C1457   1.344       .  A
N1454      C1455   1.347       .  A
C1455      C1456   1.382       .  A
C1455      H1458   1.082       .  S
C1456      C1457   1.378       .  A
C1456      C1653   1.437       .  S
C1457      H1459   1.082       .  S
N1460      N1461   1.324       .  A
N1460      C1464   1.346   1_554  A
N1461      C1462   1.347   1_554  A
C1462      C1463   1.387       .  A
C1462      H1465   1.081       .  S
C1463      C1464   1.383       .  A
C1463      C1740   1.482       .  S
C1464      H1466   1.082       .  S
N1467      C1472   1.355       .  A
N1467      C1471   1.355       .  A
N1467      H1499   1.036       .  S
N1468      C1475   1.352       .  A
N1468      C1476   1.353       .  A
N1469      C1474   1.356       .  A
N1469      C1473   1.356       .  A
N1469      H1500   1.032       .  S
N1470      C1477   1.354       .  A
N1470      C1478   1.354       .  A
C1471      C1479   1.387       .  A
C1471      C1487   1.416       .  A
C1472      C1488   1.417       .  A
C1472      C1480   1.388       .  A
C1473      C1481   1.386       .  A
C1473      C1490   1.421       .  A
C1474      C1489   1.423       .  A
C1474      C1482   1.388       .  A
C1475      C1487   1.412       .  A
C1475      C1483   1.386       .  A
C1476      C1490   1.418       .  A
C1476      C1484   1.388       .  A
C1477      C1485   1.385       .  A
C1477      C1488   1.415       .  A
C1478      C1486   1.389       .  A
C1478      C1489   1.422       .  A
C1479      C1480   1.374       .  A
C1479      H1491   1.082       .  S
C1480      H1492   1.082       .  S
C1481      C1482   1.379       .  A
C1481      H1493   1.082       .  S
C1482      H1494   1.082       .  S
C1483      C1484   1.370       .  A
C1483      H1495   1.082       .  S
C1484      H1496   1.082       .  S
C1485      C1486   1.372       .  A
C1485      H1497   1.082       .  S
C1486      H1498   1.081       .  S
C1487      C1654   1.452       .  S
C1488      C1660   1.457       .  S
N1501      C1506   1.353       .  A
N1501      C1505   1.352       .  A
N1501      H1533   1.038       .  S
N1502      C1509   1.352       .  A
N1502      C1510   1.352       .  A
N1503      C1508   1.355       .  A
N1503      C1507   1.357       .  A
N1503      H1534   1.037       .  S
N1504      C1511   1.353       .  A
N1504      C1512   1.352       .  A
C1505      C1513   1.387       .  A
C1505      C1521   1.411       .  A
C1506      C1522   1.412       .  A
C1506      C1514   1.387       .  A
C1507      C1515   1.387       .  A
C1507      C1524   1.420       .  A
C1508      C1523   1.420       .  A
C1508      C1516   1.387       .  A
C1509      C1521   1.412       .  A
C1509      C1517   1.386       .  A
C1510      C1524   1.416       .  A
C1510      C1518   1.388       .  A
C1511      C1519   1.385       .  A
C1511      C1522   1.413       .  A
C1512      C1520   1.388       .  A
C1512      C1523   1.417       .  A
C1513      C1514   1.376       .  A
C1513      H1525   1.082       .  S
C1514      H1526   1.082       .  S
C1515      C1516   1.380       .  A
C1515      H1527   1.082       .  S
C1516      H1528   1.082       .  S
C1517      C1518   1.372       .  A
C1517      H1529   1.082       .  S
C1518      H1530   1.082       .  S
C1519      C1520   1.372       .  A
C1519      H1531   1.082       .  S
C1520      H1532   1.082       .  S
C1521      C1655   1.450       .  S
C1522      C1651   1.453       .  S
C1524      C1572   1.487       .  S
N1535      N1536   1.324       .  A
N1535      C1539   1.349       .  A
N1535     Cu1543   2.088       .  S
N1536      C1537   1.343       .  A
N1536     Cu1542   2.067       .  S
C1537      C1538   1.377       .  A
C1537      H1540   1.082       .  S
C1538      C1539   1.383       .  A
C1538      C1652   1.439       .  S
C1539      H1541   1.082       .  S
Cu1542     N1545   2.066       .  S
Cu1543     N1553   2.089       .  S
Cu1544     N1546   2.064       .  S
Cu1544     N1552   2.066       .  S
N1545      N1546   1.322       .  A
N1545      C1549   1.343       .  A
N1546      C1547   1.345       .  A
C1547      C1548   1.378       .  A
C1547      H1550   1.082       .  S
C1548      C1549   1.378       .  A
C1548      C1658   1.431       .  S
C1549      H1551   1.082       .  S
N1552      N1553   1.323       .  A
N1552      C1556   1.343   1_554  A
N1553      C1554   1.348   1_554  A
C1554      C1555   1.389       .  A
C1554      H1557   1.081       .  S
C1555      C1556   1.380       .  A
C1555      C1758   1.479       .  S
C1556      H1558   1.082       .  S
N1559      N1560   1.325       .  A
N1559      C1563   1.350       .  A
N1559     Cu1567   2.093       .  S
N1560      C1561   1.346       .  A
N1560     Cu1566   2.084       .  S
C1561      C1562   1.380       .  A
C1561      H1564   1.082       .  S
C1562      C1563   1.384       .  A
C1562      C1649   1.446       .  S
C1563      H1565   1.082       .  S
Cu1566     N1569   2.084       .  S
Cu1567     N1577   2.093       .  S
Cu1568     N1570   2.085       .  S
Cu1568     N1576   2.085       .  S
N1569      N1570   1.322       .  A
N1569      C1573   1.348       .  A
N1570      C1571   1.347       .  A
C1571      C1572   1.386       .  A
C1571      H1574   1.082       .  S
C1572      C1573   1.385       .  A
C1573      H1575   1.082       .  S
N1576      N1577   1.325       .  A
N1576      C1580   1.347       .  A
N1577      C1578   1.349       .  A
C1578      C1579   1.384       .  A
C1578      H1581   1.082       .  S
C1579      C1580   1.381       .  A
C1579      C1674   1.446       .  S
C1580      H1582   1.082       .  S
N1583      N1584   1.326       .  A
N1583      C1587   1.349       .  A
N1583     Cu1591   2.093       .  S
N1584      C1585   1.347       .  A
N1584     Cu1590   2.089       .  S
C1585      C1586   1.381       .  A
C1585      H1588   1.082       .  S
C1586      C1587   1.383       .  A
C1586      C1646   1.446       .  S
C1587      H1589   1.082       .  S
Cu1590     N1593   2.089       .  S
Cu1591     N1601   2.093   1_455  S
Cu1592     N1594   2.079       .  S
Cu1592     N1600   2.080   1_455  S
N1593      N1594   1.322       .  A
N1593      C1597   1.349       .  A
N1594      C1595   1.346       .  A
C1595      C1596   1.384       .  A
C1595      H1598   1.082       .  S
C1596      C1597   1.387       .  A
C1597      H1599   1.082       .  S
N1600      N1601   1.324       .  A
N1600      C1604   1.346       .  A
N1601      C1602   1.350       .  A
C1602      C1603   1.385       .  A
C1602      H1605   1.082       .  S
C1603      C1604   1.381       .  A
C1603      C1648   1.447       .  S
C1604      H1606   1.082       .  S
N1607      N1608   1.326       .  A
N1607      C1611   1.349       .  A
N1607     Cu1615   2.094       .  S
N1608      C1609   1.348       .  A
N1608     Cu1614   2.092       .  S
C1609      C1610   1.381       .  A
C1609      H1612   1.082       .  S
C1610      C1611   1.383       .  A
C1610      C1650   1.446       .  S
C1611      H1613   1.082       .  S
Cu1614     N1617   2.091       .  S
Cu1615     N1625   2.093       .  S
Cu1616     N1618   2.081       .  S
Cu1616     N1624   2.080       .  S
N1617      N1618   1.322       .  A
N1617      C1621   1.350       .  A
N1618      C1619   1.346       .  A
C1619      C1620   1.384       .  A
C1619      H1622   1.082       .  S
C1620      C1621   1.391       .  A
C1620      C1734   1.488       .  S
C1621      H1623   1.081       .  S
N1624      N1625   1.324       .  A
N1624      C1628   1.345       .  A
N1625      C1626   1.351       .  A
C1626      C1627   1.385       .  A
C1626      H1629   1.082       .  S
C1627      C1628   1.380       .  A
C1627      C1647   1.446       .  S
C1628      H1630   1.082       .  S
O1631     Cu1639   2.030       .  S
O1631      C1641   1.279       .  A
O1632     Cu1639   2.026       .  S
O1632      C1642   1.279       .  A
O1633     Cu1639   2.011       .  S
O1633      C1643   1.276       .  A
O1634     Cu1639   2.018       .  S
O1634      C1644   1.277       .  A
O1635     Cu1640   2.023       .  S
O1635      C1644   1.278       .  A
O1636     Cu1640   2.018       .  S
O1636      C1643   1.278       .  A
O1637     Cu1640   2.021       .  S
O1637      C1642   1.278       .  A
O1638     Cu1640   2.023       .  S
O1638      C1641   1.278       .  A
Cu1639    Cu1640   2.376       .  S
C1641      C1663   1.449       .  S
C1642      C1682   1.446       .  S
C1643      C1702   1.438       .  S
C1644      C1645   1.444       .  S
C1645      C1646   1.211       .  T
C1647      C1648   1.212       .  T
C1649      C1650   1.211       .  T
C1651      C1652   1.208       .  T
C1653      C1654   1.206       .  T
C1655      C1656   1.206       .  T
C1657      C1658   1.203       .  T
C1659      C1660   1.209       .  T
C1661      C1662   1.209       .  T
C1663      C1664   1.214       .  T
C1665      C1666   1.211       .  T
C1667      C1668   1.208       .  T
C1669      C1670   1.210       .  T
C1671      C1672   1.207       .  T
C1673      C1674   1.211       .  T
C1675      C1676   1.213       .  T
C1677      C1678   1.209       .  T
C1679      C1680   1.206       .  T
C1681      C1682   1.212       .  T
C1683      C1684   1.211       .  T
C1685      C1686   1.211       .  T
C1687      C1688   1.210       .  T
C1689      C1690   1.206       .  T
C1691      C1692   1.205       .  T
C1693      C1694   1.210       .  T
C1695      C1696   1.204       .  T
C1697      C1698   1.204       .  T
C1699      C1700   1.207       .  T
C1701      C1702   1.208       .  T
C1703      C1704   1.213       .  T
C1705      C1706   1.210       .  T
C1707      C1708   1.211       .  T
C1709      C1710   1.209       .  T
C1711      C1712   1.208       .  T
C1713      C1714   1.208       .  T
C1715      C1716   1.209       .  T
C1717      C1718   1.347       .  D
C1717      H1719   1.085       .  S
C1718      H1720   1.085       .  S
C1721      C1722   1.212       .  T
C1723      C1724   1.211       .  T
C1725      C1726   1.344       .  D
C1725      H1727   1.085       .  S
C1726      H1728   1.086       .  S
C1729      C1730   1.212       .  T
C1731      C1732   1.209       .  T
C1733      C1734   1.347       .  D
C1733      H1735   1.085       .  S
C1734      H1736   1.085       .  S
C1737      C1738   1.213       .  T
C1739      C1740   1.345       .  D
C1739      H1741   1.085       .  S
C1740      H1742   1.085       .  S
C1743      C1744   1.211       .  T
C1745      C1746   1.211       .  T
C1747      C1748   1.207       .  T
C1749      C1750   1.344       .  D
C1749      H1751   1.085       .  S
C1750      H1752   1.085       .  S
C1753      C1754   1.209       .  T
C1755      C1756   1.210       .  T
C1757      C1758   1.343       .  D
C1757      H1759   1.085       .  S
C1758      H1760   1.085       .  S
C1761      C1762   1.211       .  T
C1763      C1764   1.210       .  T
C1765      C1766   1.211       .  T
C1767      C1768   1.210       .  T
C1769      C1770   1.207       .  T
C1771      C1772   1.213       .  T
C1773      C1774   1.214       .  T
C1775      C1776   1.208       .  T
C1777      C1778   1.344       .  D
C1777      H1779   1.085       .  S
C1778      H1780   1.085       .  S
C1781      C1782   1.208       .  T
C1783      C1784   1.209       .  T
C1785      C1786   1.213       .  T
C1787      C1788   1.209       .  T
C1789      C1790   1.210       .  T
C1791      C1792   1.342       .  D
C1791      H1793   1.085       .  S
C1792      H1794   1.085       .  S
C1795      C1796   1.207       .  T
C1797      C1798   1.343       .  D
C1797      H1799   1.085       .  S
C1798      H1800   1.085       .  S
C1801      C1802   1.205       .  T
C1803      C1804   1.209       .  T
C1805      C1806   1.345       .  D
C1805      H1807   1.085       .  S
C1806      H1808   1.085       .  S
C1809      C1810   1.205       .  T
C1811      C1812   1.209       .  T
C1813      C1814   1.344       .  D
C1813      H1815   1.085       .  S
C1814      H1816   1.085       .  S
C1817      C1818   1.209       .  T
C1819      C1820   1.207       .  T
C1821      C1822   1.214       .  T
C1823      C1824   1.210       .  T
C1825      C1826   1.342       .  D
C1825      H1827   1.085       .  S
C1826      H1828   1.085       .  S
C1829      C1830   1.208       .  T
C1831      C1832   1.208       .  T
C1833      C1834   1.210       .  T
C1835      C1836   1.213       .  T
