geometry optimzed in LAMMPS
_audit_creation_date              2020-11-30 
_audit_creation_method            'lammps2cif' 
_symmetry_space_group_name_H-M    'P1' 
_symmetry_Int_Tables_number       1 
_symmetry_cell_setting            triclinic 
loop_ 
_symmetry_equiv_pos_as_xyz 
  x,y,z 
_cell_length_a                    54.93579108 
_cell_length_b                    54.69997738952258 
_cell_length_c                    54.82086723222844 
_cell_angle_alpha                 90.14681784536953 
_cell_angle_beta                  90.10562059782788 
_cell_angle_gamma                 90.09355478678923 
loop_ 
_atom_site_label 
_atom_site_type_symbol 
_atom_site_fract_x 
_atom_site_fract_y 
_atom_site_fract_z 
_atom_site_charge 
C1          C  0.97723471  0.00831437  0.99500901     0.02600
C2          C  0.99333279  0.01277893  0.97516038     0.02600
C3          C  0.01416510  0.99781858  0.97180813     0.02600
C4          C  0.02020179  0.97980678  0.98929212     0.02600
C5          C  0.00504607  0.97620781  0.00996505     0.02600
C6          C  0.98382803  0.99082471  0.01316325     0.02600
O7          O  0.03194541  0.20178465  0.86373955    -0.79800
O8          O  0.96851376  0.29467825  0.86345389    -0.79800
O9          O  0.96460487  0.24032466  0.83513836    -0.79900
O10         O  0.03670981  0.25624650  0.83780233    -0.79800
O11         O  0.94249127  0.25454709  0.86496979    -0.79900
O12         O  0.05766661  0.24156575  0.86821968    -0.79800
O13         O  0.99356790  0.28140471  0.83530708    -0.79800
O14         O  0.00797982  0.21453528  0.83419576    -0.79900
C15         C  0.02594044  0.20209430  0.84129236     1.09900
C16         C  0.97686282  0.29566071  0.84180020     1.09800
C17         C  0.94464543  0.24890248  0.84260528     1.09900
C18         C  0.05650257  0.24804483  0.84599001     1.09800
O19         O  0.03286568  0.25420760  0.91371046    -0.79800
O20         O  0.96474188  0.24025739  0.91105110    -0.79900
O21         O  0.99316724  0.18985869  0.87903627    -0.79800
O22         O  0.00617307  0.30534577  0.88181882    -0.79800
O23         O  0.99054120  0.28348047  0.91108728    -0.79900
O24         O  0.00697177  0.21061710  0.91023356    -0.79800
O25         O  0.04547742  0.27969605  0.88535293    -0.79800
O26         O  0.95334227  0.21560676  0.88133892    -0.79900
Co27       Co  0.02954439  0.22870244  0.88877290     1.51500
Co28       Co  0.96931698  0.26655316  0.88748727     1.51700
Co29       Co  0.98143073  0.21790154  0.85773252     1.51600
Co30       Co  0.01885254  0.27790005  0.86009522     1.51500
O31         O  0.99978296  0.24771186  0.87370756    -1.41800
C32         C  0.04486444  0.27288869  0.90749448     1.09800
C33         C  0.95278916  0.22196780  0.90366034     1.09900
C34         C  0.99837889  0.19097433  0.90161492     1.09800
C35         C  0.99914207  0.30353655  0.90381364     1.09800
O36         O  0.86810767  0.03168961  0.19910864    -0.79800
O37         O  0.87149251  0.96566603  0.29152599    -0.79800
O38         O  0.84034033  0.96293487  0.23683826    -0.79900
O39         O  0.83967999  0.03317563  0.25505645    -0.79800
O40         O  0.87102362  0.94139932  0.25079299    -0.79900
O41         O  0.86887019  0.05581407  0.23986150    -0.79800
O42         O  0.84095955  0.98875916  0.27997481    -0.79800
O43         O  0.83872644  0.00724659  0.21111048    -0.79900
C44         C  0.84585092  0.02548685  0.19893769     1.09900
C45         C  0.84918881  0.97166169  0.29296576     1.09800
C46         C  0.84840641  0.94324874  0.24592008     1.09900
C47         C  0.84661226  0.05311067  0.24568441     1.09800
O48         O  0.91570585  0.03429136  0.25324685    -0.79800
O49         O  0.91661716  0.96468969  0.23486249    -0.79900
O50         O  0.88476610  0.99335538  0.18761832    -0.79800
O51         O  0.88725150  0.00451996  0.30216028    -0.79800
O52         O  0.91707324  0.99023597  0.27973715    -0.79900
O53         O  0.91490119  0.00882563  0.20901545    -0.79800
O54         O  0.88624362  0.04508848  0.27813429    -0.79800
O55         O  0.88587819  0.95281908  0.21200449    -0.79900
Co56       Co  0.89184196  0.02977275  0.22698508     1.51500
Co57       Co  0.89385794  0.96834744  0.26250149     1.51700
Co58       Co  0.86262249  0.98078438  0.21474963     1.51600
Co59       Co  0.86362485  0.01623943  0.27596894     1.51500
O60         O  0.87808484  0.99879659  0.24504449    -1.41800
C61         C  0.90831542  0.04634400  0.27145811     1.09800
C62         C  0.90849291  0.95315063  0.21651734     1.09900
C63         C  0.90708428  0.99962404  0.18929510     1.09800
C64         C  0.90960343  0.99874835  0.29991472     1.09800
C65         C  0.02001690  0.01525396  0.50171708     0.02600
C66         C  0.00214204  0.02044380  0.48357111     0.02600
C67         C  0.98307477  0.00325392  0.47916869     0.02600
C68         C  0.97982417  0.98286639  0.49505775     0.02600
C69         C  0.99806340  0.97725411  0.51259077     0.02600
C70         C  0.01762204  0.99386724  0.51634756     0.02600
O71         O  0.02453062  0.80220585  0.63469646    -0.79800
O72         O  0.97563132  0.70071250  0.64560196    -0.79800
O73         O  0.96248209  0.75726965  0.66550933    -0.79900
O74         O  0.03504864  0.75321695  0.67032290    -0.79800
O75         O  0.94454800  0.73551593  0.63728098    -0.79900
O76         O  0.05615266  0.76636997  0.63929816    -0.79800
O77         O  0.99563802  0.72112164  0.67390581    -0.79800
O78         O  0.00097487  0.78954445  0.66440578    -0.79900
C79         C  0.01587633  0.80486141  0.65604427     1.09900
C80         C  0.98115261  0.70422797  0.66788602     1.09800
C81         C  0.94448849  0.74471728  0.65862651     1.09900
C82         C  0.05445518  0.76245300  0.66212204     1.09800
O83         O  0.03741806  0.74292959  0.59502447    -0.79800
O84         O  0.96810014  0.74673190  0.59030680    -0.79900
O85         O  0.98565945  0.80444654  0.61537860    -0.79800
O86         O  0.01601478  0.69389747  0.63244465    -0.79800
O87         O  0.99951104  0.70725027  0.59860611    -0.79900
O88         O  0.00563518  0.78221973  0.58901644    -0.79800
O89         O  0.05116927  0.72470855  0.62804470    -0.79800
O90         O  0.95030358  0.77238696  0.61551232    -0.79900
Co91       Co  0.02846695  0.77135081  0.61484623     1.51500
Co92       Co  0.97445927  0.72479819  0.61791165     1.51700
Co93       Co  0.97687950  0.77844206  0.64043638     1.51600
Co94       Co  0.02237898  0.72575587  0.65059543     1.51500
O95         O  0.00060482  0.75005530  0.63068159    -1.41800
C96         C  0.05110749  0.72736067  0.60505243     1.09800
C97         C  0.95212572  0.76274974  0.59442507     1.09900
C98         C  0.99394973  0.80151345  0.59392233     1.09800
C99         C  0.01089039  0.69069432  0.61002662     1.09800
O100        O  0.20524905  0.86698524  0.03190964    -0.79800
O101        O  0.30116889  0.87283283  0.97426479    -0.79800
O102        O  0.24935061  0.83942838  0.96778680    -0.79900
O103        O  0.26133680  0.84217501  0.03955350    -0.79800
O104        O  0.26326705  0.86998651  0.94615580    -0.79900
O105        O  0.24321336  0.87130318  0.05993187    -0.79800
O106        O  0.28942355  0.84262479  0.99784114    -0.79800
O107        O  0.22139150  0.83773985  0.00979064    -0.79900
C108        C  0.20695226  0.84451632  0.02626005     1.09900
C109        C  0.30251659  0.85063256  0.98081288     1.09800
C110        C  0.25849606  0.84727327  0.94817639     1.09900
C111        C  0.25112518  0.84943716  0.05883625     1.09800
O112        O  0.25601407  0.91800684  0.03599531    -0.79800
O113        O  0.24367298  0.91562036  0.96703737    -0.79900
O114        O  0.19571557  0.88187666  0.99254309    -0.79800
O115        O  0.30829834  0.89059274  0.01293894    -0.79800
O116        O  0.28590981  0.91885071  0.99567621    -0.79900
O117        O  0.21480446  0.91353665  0.00783283    -0.79800
O118        O  0.28079822  0.89063854  0.05124018    -0.79800
O119        O  0.22319198  0.88358003  0.95404286    -0.79900
Co120      Co  0.23160668  0.89242517  0.03137909     1.51500
Co121      Co  0.27162388  0.89415210  0.97347212     1.51700
Co122      Co  0.22496623  0.86103261  0.98291588     1.51600
Co123      Co  0.28237167  0.86640332  0.02355577     1.51500
O124        O  0.25266655  0.87851728  0.00279508    -1.41800
C125        C  0.27275369  0.91239769  0.05057757     1.09800
C126        C  0.22818382  0.90623352  0.95280595     1.09900
C127        C  0.19596192  0.90446127  0.99823771     1.09800
C128        C  0.30566832  0.91254459  0.00575163     1.09800
O129        O  0.99345415  0.78564214  0.15785140    -0.79800
O130        O  0.99380028  0.71615550  0.16122251    -0.79800
O131        O  0.94394897  0.76772754  0.11999091    -0.79900
O132        O  0.05243395  0.73159357  0.13677309    -0.79800
O133        O  0.95693140  0.74997946  0.15323945    -0.79900
O134        O  0.03067697  0.75175840  0.16328544    -0.79800
O135        O  0.01882674  0.69771343  0.13598121    -0.79800
O136        O  0.97662577  0.80185315  0.12537636    -0.79900
C137        C  0.98110915  0.80240719  0.14816853     1.09900
C138        C  0.00886814  0.69935401  0.15687384     1.09800
C139        C  0.94091248  0.76238206  0.14228526     1.09900
C140        C  0.04971323  0.73986230  0.15831645     1.09800
O141        O  0.05169336  0.77060259  0.11807540    -0.79800
O142        O  0.94870246  0.72678351  0.10558870    -0.79900
O143        O  0.00364344  0.78383937  0.08273745    -0.79800
O144        O  0.00432842  0.71077821  0.08615425    -0.79800
O145        O  0.98173455  0.69366075  0.11400987    -0.79900
O146        O  0.01808558  0.80398980  0.11394427    -0.79800
O147        O  0.03819980  0.74790905  0.08780054    -0.79800
O148        O  0.96955837  0.74713472  0.07813028    -0.79900
Co149      Co  0.02130051  0.77560533  0.13798245     1.51500
Co150      Co  0.97253695  0.72405758  0.13355916     1.51700
Co151      Co  0.97574727  0.77292725  0.10220001     1.51600
Co152      Co  0.02610980  0.72415344  0.11146839     1.51500
O153        O  0.99888384  0.74915930  0.12138692    -1.41800
C154        C  0.05328011  0.76312338  0.09616359     1.09800
C155        C  0.95260836  0.73255922  0.08343288     1.09900
C156        C  0.01393624  0.80263307  0.09113418     1.09800
C157        C  0.99126266  0.69309526  0.09289567     1.09800
C158        C  0.26148402  0.77278972  0.24830663     0.02600
C159        C  0.24105983  0.76778051  0.23300591     0.02600
C160        C  0.22511905  0.74799013  0.23847171     0.02600
C161        C  0.23077230  0.73187867  0.25801192     0.02600
C162        C  0.25128057  0.73671668  0.27312951     0.02600
C163        C  0.26686185  0.75678370  0.26797231     0.02600
O164        O  0.21527026  0.66496117  0.50648407    -0.79800
O165        O  0.28408457  0.66629498  0.49568014    -0.79800
O166        O  0.23928469  0.63561158  0.55826134    -0.79900
O167        O  0.26083792  0.63433161  0.44518595    -0.79800
O168        O  0.25516858  0.66558331  0.53718961    -0.79900
O169        O  0.24410440  0.66407623  0.46580893    -0.79800
O170        O  0.29897892  0.63649517  0.47338335    -0.79800
O171        O  0.20097098  0.63590808  0.52987322    -0.79900
C172        C  0.20035115  0.65787072  0.52230659     1.09900
C173        C  0.29886025  0.65884681  0.47980423     1.09800
C174        C  0.24529340  0.65801068  0.55655916     1.09900
C175        C  0.25448756  0.65665094  0.44673253     1.09800
O176        O  0.22223150  0.61670889  0.45300285    -0.79800
O177        O  0.27866347  0.61970222  0.55018777    -0.79900
O178        O  0.21455818  0.58893788  0.50817799    -0.79800
O179        O  0.28688489  0.59007936  0.49660134    -0.79800
O180        O  0.30718955  0.62059330  0.51262326    -0.79900
O181        O  0.19355034  0.61805325  0.49090610    -0.79800
O182        O  0.24550305  0.58799437  0.46824337    -0.79800
O183        O  0.25571080  0.58934620  0.53717583    -0.79900
Co184      Co  0.22136052  0.64086598  0.48086935     1.51500
Co185      Co  0.27865018  0.64286995  0.52206265     1.51700
Co186      Co  0.22950090  0.61263584  0.53080916     1.51600
Co187      Co  0.27113731  0.61237278  0.47340116     1.51500
O188        O  0.25017276  0.62708239  0.50185766    -1.41800
C189        C  0.22884528  0.59446521  0.45389635     1.09800
C190        C  0.27364383  0.59711121  0.54931616     1.09900
C191        C  0.19518125  0.59596312  0.49801912     1.09800
C192        C  0.30606574  0.59811967  0.50646909     1.09800
C193        C  0.26486068  0.72572909  0.75128095     0.02600
C194        C  0.24647871  0.73218480  0.73397715     0.02600
C195        C  0.23210761  0.75355154  0.73763956     0.02600
C196        C  0.23729568  0.76932386  0.75764427     0.02600
C197        C  0.25554687  0.76308456  0.77486349     0.02600
C198        C  0.26970154  0.74163809  0.77137284     0.02600
O199        O  0.44947316  0.77327777  0.87899046    -0.79800
O200        O  0.55115604  0.72911291  0.88782249    -0.79800
O201        O  0.49887861  0.71878311  0.91735825    -0.79900
O202        O  0.50152817  0.79363323  0.90408811    -0.79800
O203        O  0.51712894  0.69629864  0.88997308    -0.79900
O204        O  0.48300012  0.80498990  0.87061843    -0.79800
O205        O  0.53440253  0.75572528  0.91280671    -0.79800
O206        O  0.46621808  0.75747920  0.91189824    -0.79900
C207        C  0.45068490  0.77123966  0.90206666     1.09900
C208        C  0.55038216  0.73976985  0.90852002     1.09800
C209        C  0.51011689  0.69941932  0.91178506     1.09900
C210        C  0.48924568  0.80936524  0.89250534     1.09800
O211        O  0.50185618  0.77618790  0.82971566    -0.79800
O212        O  0.49905410  0.70852659  0.84191856    -0.79900
O213        O  0.44492270  0.73155790  0.86985661    -0.79800
O214        O  0.55556532  0.76519440  0.86449151    -0.79800
O215        O  0.53680592  0.74219078  0.83784084    -0.79900
O216        O  0.46416261  0.74336855  0.83714137    -0.79800
O217        O  0.52291364  0.79857705  0.85568316    -0.79800
O218        O  0.47723522  0.69716100  0.87361107    -0.79900
Co219      Co  0.47673142  0.77210792  0.85465603     1.51500
Co220      Co  0.52400755  0.72147218  0.86412680     1.51700
Co221      Co  0.47420310  0.72840220  0.89273806     1.51600
Co222      Co  0.52620255  0.77604524  0.88451620     1.51500
O223        O  0.50028964  0.74952956  0.87424777    -1.41800
C224        C  0.51602208  0.79381590  0.83399833     1.09800
C225        C  0.48414005  0.69395235  0.85170505     1.09900
C226        C  0.44546868  0.73420939  0.84679620     1.09800
C227        C  0.55509921  0.75485566  0.84368274     1.09800
C228        C  0.75152062  0.23442124  0.76969168     0.02600
C229        C  0.76905043  0.25261511  0.76377491     0.02600
C230        C  0.76651036  0.26643457  0.74192347     0.02600
C231        C  0.74827508  0.26021875  0.72448698     0.02600
C232        C  0.73067792  0.24204537  0.73050818     0.02600
C233        C  0.73290315  0.22857394  0.75261575     0.02600
O234        O  0.88309326  0.44751184  0.78147665    -0.79800
O235        O  0.88576362  0.54403072  0.72528834    -0.79800
O236        O  0.91636724  0.49226339  0.71944671    -0.79900
O237        O  0.90561173  0.50212132  0.79416164    -0.79800
O238        O  0.88731446  0.50632938  0.69622745    -0.79900
O239        O  0.87325441  0.48430875  0.80898611    -0.79800
O240        O  0.91187388  0.53065088  0.75269151    -0.79800
O241        O  0.91437851  0.46351655  0.76178973    -0.79900
C242        C  0.90594746  0.44955667  0.77810930     1.09900
C243        C  0.90681597  0.54455146  0.73509834     1.09800
C244        C  0.90959772  0.50112226  0.69926424     1.09900
C245        C  0.89520510  0.49107729  0.81150270     1.09800
O246        O  0.83069039  0.49753277  0.77994510    -0.79800
O247        O  0.84070209  0.48868581  0.71289868    -0.79900
O248        O  0.87316289  0.43795598  0.74057202    -0.79800
O249        O  0.86365295  0.55193046  0.76156533    -0.79800
O250        O  0.83666733  0.53039979  0.74173285    -0.79900
O251        O  0.83900818  0.45502166  0.75189029    -0.79800
O252        O  0.85654888  0.52258391  0.79819701    -0.79800
O253        O  0.87263212  0.46615962  0.70316750    -0.79900
Co254      Co  0.85686536  0.47305073  0.77781461     1.51500
Co255      Co  0.86253156  0.51553789  0.72173873     1.51700
Co256      Co  0.89360593  0.46772702  0.73312288     1.51600
Co257      Co  0.88463606  0.52417760  0.77474876     1.51500
O258        O  0.87437894  0.49507542  0.75184495    -1.41800
C259        C  0.83502444  0.51439822  0.79518463     1.09800
C260        C  0.85025005  0.47148512  0.70081268     1.09900
C261        C  0.85025138  0.43682020  0.74313929     1.09800
C262        C  0.84262958  0.55020450  0.75195730     1.09800
O263        O  0.99595060  0.22124049  0.33057001    -0.79800
O264        O  0.00225333  0.28991848  0.33866820    -0.79800
O265        O  0.94553065  0.23705531  0.36832175    -0.79900
O266        O  0.05792361  0.26484599  0.36483030    -0.79800
O267        O  0.96174332  0.25860059  0.33892378    -0.79900
O268        O  0.03675311  0.25213307  0.33353124    -0.79800
O269        O  0.02755373  0.30091442  0.36805740    -0.79800
O270        O  0.97561567  0.20170570  0.35905739    -0.79900
C271        C  0.98160043  0.20432383  0.33675492     1.09900
C272        C  0.01920308  0.30347836  0.34656538     1.09800
C273        C  0.94419657  0.24601227  0.34704074     1.09900
C274        C  0.05631090  0.26100942  0.34199626     1.09800
O275        O  0.05190745  0.22374630  0.37617614    -0.79800
O276        O  0.95287978  0.27474356  0.38898610    -0.79900
O277        O  0.00025158  0.20800670  0.40597971    -0.79800
O278        O  0.00800063  0.28302480  0.41444650    -0.79800
O279        O  0.98912892  0.30557924  0.38761136    -0.79900
O280        O  0.01596090  0.19393656  0.37203373    -0.79800
O281        O  0.03869929  0.24254100  0.40916885    -0.79800
O282        O  0.96907766  0.24829911  0.41455711    -0.79900
Co283      Co  0.02304943  0.22538438  0.35361722     1.51500
Co284      Co  0.97860240  0.27948729  0.36333532     1.51700
Co285      Co  0.97531015  0.22598518  0.38686067     1.51600
Co286      Co  0.03038976  0.27084374  0.38889505     1.51500
O287        O  0.00180069  0.25044057  0.37327225    -1.41800
C288        C  0.05208349  0.22662368  0.39915996     1.09800
C289        C  0.95459018  0.26579733  0.41034496     1.09900
C290        C  0.01109263  0.19107548  0.39451975     1.09800
C291        C  0.99720408  0.30270559  0.40915752     1.09800
C292        C  0.24025483  0.27873069  0.25245431     0.02600
C293        C  0.23614399  0.26208252  0.27188301     0.02600
C294        C  0.25145352  0.24132593  0.27474753     0.02600
C295        C  0.26849930  0.23523106  0.25608468     0.02600
C296        C  0.27266297  0.25179532  0.23648542     0.02600
C297        C  0.25770189  0.27303917  0.23406324     0.02600
O298        O  0.21314691  0.33449412  0.99584587    -0.79800
O299        O  0.28182171  0.33725495  0.00711764    -0.79800
O300        O  0.23527696  0.36236641  0.94357876    -0.79900
O301        O  0.25755706  0.36916577  0.05645157    -0.79800
O302        O  0.25303742  0.33441727  0.96584986    -0.79900
O303        O  0.24189447  0.33786701  0.03702291    -0.79800
O304        O  0.29546041  0.36862100  0.02805470    -0.79800
O305        O  0.19687525  0.36210816  0.97210257    -0.79900
C306        C  0.19732817  0.34041768  0.98041262     1.09900
C307        C  0.29611034  0.34600367  0.02283522     1.09800
C308        C  0.24243339  0.34042814  0.94633085     1.09900
C309        C  0.25165543  0.34661687  0.05601186     1.09800
O310        O  0.21808920  0.38407319  0.04802369    -0.79800
O311        O  0.27430546  0.38078745  0.95007926    -0.79900
O312        O  0.20916654  0.41046298  0.99156264    -0.79800
O313        O  0.28061672  0.41330016  0.00318971    -0.79800
O314        O  0.30243085  0.38342584  0.98816171    -0.79900
O315        O  0.18961651  0.38116014  0.01036986    -0.79800
O316        O  0.23949464  0.41389030  0.03213909    -0.79800
O317        O  0.25001091  0.41045590  0.96176762    -0.79900
Co318      Co  0.21822258  0.35951215  0.02085030     1.51500
Co319      Co  0.27529014  0.35913578  0.97965910     1.51700
Co320      Co  0.22474355  0.38634103  0.96985387     1.51600
Co321      Co  0.26638259  0.39093046  0.02737374     1.51500
O322        O  0.24618479  0.37415202  0.99936991    -1.41800
C323        C  0.22390369  0.40651385  0.04718604     1.09800
C324        C  0.26761492  0.40294926  0.94901504     1.09900
C325        C  0.19048838  0.40318592  0.00283479     1.09800
C326        C  0.30017582  0.40598448  0.99360039     1.09800
C327        C  0.24418062  0.26550257  0.76945585     0.02600
C328        C  0.23036887  0.24396795  0.76494409     0.02600
C329        C  0.23725468  0.22784014  0.74585100     0.02600
C330        C  0.25678833  0.23400100  0.73005809     0.02600
C331        C  0.27039782  0.25569775  0.73446923     0.02600
C332        C  0.26350973  0.27185053  0.75351173     0.02600
O333        O  0.54903445  0.27707044  0.61961905    -0.79800
O334        O  0.45057095  0.22788998  0.60926219    -0.79800
O335        O  0.50386441  0.21706052  0.58285163    -0.79900
O336        O  0.49772776  0.29470541  0.59437285    -0.79800
O337        O  0.48537340  0.19567827  0.61080642    -0.79900
O338        O  0.51434954  0.30724606  0.62837749    -0.79800
O339        O  0.46742413  0.25494485  0.58470941    -0.79800
O340        O  0.53495061  0.25781499  0.58695909    -0.79900
C341        C  0.54833904  0.27402638  0.59660467     1.09900
C342        C  0.45229394  0.23800977  0.58839129     1.09800
C343        C  0.49275377  0.19774869  0.58901234     1.09900
C344        C  0.50854169  0.31125045  0.60637343     1.09800
O345        O  0.49641454  0.27770059  0.66873567    -0.79800
O346        O  0.50090518  0.21206713  0.65866840    -0.79900
O347        O  0.55621517  0.23568751  0.63027368    -0.79800
O348        O  0.44320009  0.26417164  0.63154615    -0.79800
O349        O  0.46217009  0.24360214  0.65958292    -0.79900
O350        O  0.53571739  0.24711362  0.66223182    -0.79800
O351        O  0.47446864  0.29856844  0.64229425    -0.79800
O352        O  0.52463733  0.19964134  0.62867960    -0.79900
Co353      Co  0.52194116  0.27475581  0.64412944     1.51500
Co354      Co  0.47665077  0.22230216  0.63475021     1.51700
Co355      Co  0.52733381  0.22962371  0.60754857     1.51600
Co356      Co  0.47322817  0.27596604  0.61308310     1.51500
O357        O  0.49984767  0.25070536  0.62440505    -1.41800
C358        C  0.48125047  0.29432975  0.66414343     1.09800
C359        C  0.51735073  0.19816796  0.65066469     1.09900
C360        C  0.55501915  0.23869737  0.65323026     1.09800
C361        C  0.44348531  0.25490423  0.65275167     1.09800
O362        O  0.32972379  0.00430476  0.22576962    -0.79800
O363        O  0.34247618  0.00545588  0.29241927    -0.79800
O364        O  0.36268615  0.94754727  0.23666666    -0.79900
O365        O  0.37402613  0.05875325  0.27024293    -0.79800
O366        O  0.33685448  0.96726485  0.25944023    -0.79900
O367        O  0.33951851  0.04342950  0.25737375    -0.79800
O368        O  0.37493598  0.02603048  0.30426169    -0.79800
O369        O  0.35432396  0.98110285  0.20396533    -0.79900
C370        C  0.33312282  0.98909063  0.20880332     1.09900
C371        C  0.35276181  0.01991129  0.30717589     1.09800
C372        C  0.34188504  0.94869637  0.24675747     1.09900
C373        C  0.35119633  0.06078708  0.26726963     1.09800
O374        O  0.38242199  0.05357472  0.22801967    -0.79800
O375        O  0.38667926  0.95176299  0.27247699    -0.79900
O376        O  0.40389850  0.00042235  0.20785575    -0.79800
O377        O  0.41781878  0.00234167  0.28332259    -0.79800
O378        O  0.38974900  0.98543214  0.30577701    -0.79900
O379        O  0.37137345  0.02017035  0.19639575    -0.79800
O380        O  0.41441645  0.03577374  0.24452906    -0.79800
O381        O  0.41161185  0.96737715  0.24518078    -0.79900
Co382      Co  0.35633699  0.02800050  0.22934627     1.51500
Co383      Co  0.36373391  0.97955623  0.28005976     1.51700
Co384      Co  0.38342215  0.97655425  0.22565597     1.51600
Co385      Co  0.39462988  0.02819897  0.27337017     1.51500
O386        O  0.37464092  0.00314593  0.25211580    -1.41800
C387        C  0.40533850  0.05232593  0.23131126     1.09800
C388        C  0.40759542  0.95282119  0.26246688     1.09900
C389        C  0.39279801  0.01277394  0.19189579     1.09800
C390        C  0.41188238  0.99140248  0.30273153     1.09800
C391        C  0.49873897  0.02301937  0.51212117     0.02600
C392        C  0.48115553  0.01667524  0.49392285     0.02600
C393        C  0.48400130  0.99452868  0.48039855     0.02600
C394        C  0.50281613  0.97767613  0.48652569     0.02600
C395        C  0.52101726  0.98456131  0.50384571     0.02600
C396        C  0.51827535  0.00668222  0.51746885     0.02600
O397        O  0.46852522  0.74964431  0.40782372    -0.79800
O398        O  0.53605470  0.75451090  0.40523691    -0.79800
O399        O  0.48732079  0.69406684  0.37836540    -0.79900
O400        O  0.51716575  0.80640761  0.37177483    -0.79800
O401        O  0.50550667  0.71527760  0.40672089    -0.79900
O402        O  0.49932914  0.79059127  0.40381614    -0.79800
O403        O  0.55225716  0.77515758  0.37506956    -0.79800
O404        O  0.45198069  0.72586288  0.37991589    -0.79900
C405        C  0.45344120  0.73326599  0.40189329     1.09900
C406        C  0.55152072  0.76951906  0.39759504     1.09800
C407        C  0.49494666  0.69588056  0.40025011     1.09900
C408        C  0.51118823  0.80794489  0.39408587     1.09800
O409        O  0.47668074  0.80019300  0.35708796    -0.79800
O410        O  0.52622846  0.69905080  0.36020135    -0.79900
O411        O  0.46463515  0.74547862  0.33183989    -0.79800
O412        O  0.53694449  0.75092252  0.32936645    -0.79800
O413        O  0.55711293  0.73505190  0.35976072    -0.79900
O414        O  0.44567203  0.76434988  0.36132827    -0.79800
O415        O  0.49808555  0.78359296  0.32751330    -0.79800
O416        O  0.50327108  0.71344208  0.33081955    -0.79900
Co417      Co  0.47503618  0.77393797  0.38234899     1.51500
Co418      Co  0.52884086  0.72801341  0.38278860     1.51700
Co419      Co  0.47876657  0.72221491  0.35521785     1.51600
Co420      Co  0.52406785  0.77641599  0.35122810     1.51500
O421        O  0.50164496  0.75025577  0.36791919    -1.41800
C422        C  0.48362454  0.79988108  0.33497008     1.09800
C423        C  0.51880242  0.69828198  0.33822894     1.09900
C424        C  0.44607622  0.75667971  0.33937173     1.09800
C425        C  0.55582103  0.74047859  0.33723969     1.09800
O426        O  0.57982727  0.97113569  0.75253536    -0.79800
O427        O  0.58847325  0.03750199  0.75047511    -0.79800
O428        O  0.61565763  0.98327778  0.80666297    -0.79900
O429        O  0.61672214  0.01657912  0.69439066    -0.79800
O430        O  0.58750519  0.00482785  0.78882816    -0.79900
O431        O  0.58490663  0.00306659  0.71380648    -0.79800
O432        O  0.61866706  0.05078339  0.72767241    -0.79800
O433        O  0.60659645  0.94989901  0.77362131    -0.79900
C434        C  0.58473305  0.95391212  0.76690111     1.09900
C435        C  0.59649219  0.05165209  0.73424848     1.09800
C436        C  0.59449893  0.99263216  0.80701681     1.09900
C437        C  0.59388532  0.01266541  0.69495629     1.09800
O438        O  0.62801820  0.97511075  0.69903489    -0.79800
O439        O  0.63703800  0.02066649  0.80122956    -0.79900
O440        O  0.65452713  0.95644525  0.75120587    -0.79800
O441        O  0.66405936  0.03177390  0.74795474    -0.79800
O442        O  0.63663337  0.05355204  0.76680999    -0.79900
O443        O  0.62126590  0.94352851  0.73339173    -0.79800
O444        O  0.66023463  0.99313058  0.71486207    -0.79800
O445        O  0.66259687  0.99491752  0.78398503    -0.79900
Co446      Co  0.60407540  0.97558685  0.72688198     1.51500
Co447      Co  0.61225502  0.02674542  0.77474213     1.51700
Co448      Co  0.63490359  0.97334795  0.77638232     1.51600
Co449      Co  0.63961463  0.02096137  0.72371576     1.51500
O450        O  0.62296333  0.99912243  0.75043334    -1.41800
C451        C  0.65082915  0.97934010  0.69895150     1.09800
C452        C  0.65821480  0.01137385  0.79956517     1.09900
C453        C  0.64328072  0.93999635  0.73946834     1.09800
C454        C  0.65834854  0.05108796  0.75923478     1.09800
C455        C  0.51960410  0.98765682  0.98454867     0.02600
C456        C  0.49828220  0.97471113  0.99172779     0.02600
C457        C  0.48441799  0.98310829  0.01198496     0.02600
C458        C  0.49284635  0.00308594  0.02635576     0.02600
C459        C  0.51389893  0.01622207  0.01878811     0.02600
C460        C  0.52802314  0.00776080  0.99874926     0.02600
O461        O  0.46461740  0.25354358  0.08703195    -0.79800
O462        O  0.53071810  0.24722983  0.07893147    -0.79800
O463        O  0.48895079  0.30701076  0.11851110    -0.79900
O464        O  0.51447206  0.19324611  0.11358193    -0.79800
O465        O  0.50118232  0.28826174  0.08563953    -0.79900
O466        O  0.49458867  0.21313104  0.08554731    -0.79800
O467        O  0.55001068  0.22387514  0.10537299    -0.79800
O468        O  0.45246692  0.27642332  0.11779791    -0.79900
C469        C  0.45119078  0.27020036  0.09543899     1.09900
C470        C  0.54669189  0.23132458  0.08358464     1.09800
C471        C  0.49278796  0.30725929  0.09566148     1.09900
C472        C  0.50584381  0.19419801  0.09211701     1.09800
O473        O  0.47746404  0.20095057  0.13483882    -0.79800
O474        O  0.52977636  0.29869849  0.12992690    -0.79900
O475        O  0.46847891  0.25322266  0.16310800    -0.79800
O476        O  0.54484612  0.24557115  0.15417038    -0.79800
O477        O  0.55884791  0.26315477  0.12133554    -0.79900
O478        O  0.44626523  0.23691524  0.13435012    -0.79800
O479        O  0.50463174  0.21535092  0.16091894    -0.79800
O480        O  0.50950435  0.28385205  0.16143404    -0.79900
Co481      Co  0.47330904  0.22802271  0.11038792     1.51500
Co482      Co  0.52747887  0.27229941  0.10438890     1.51700
Co483      Co  0.48182926  0.27743053  0.13978648     1.51600
Co484      Co  0.52642873  0.22213461  0.13360383     1.51500
O485        O  0.50230142  0.24996383  0.12235138    -1.41800
C486        C  0.48642036  0.20202489  0.15629067     1.09800
C487        C  0.52553213  0.29797034  0.15273462     1.09900
C488        C  0.44864475  0.24342725  0.15651252     1.09800
C489        C  0.56173574  0.25691878  0.14340047     1.09800
O490        O  0.19717318  0.12963645  0.47747458    -0.79800
O491        O  0.30021071  0.14037102  0.52140016    -0.79800
O492        O  0.24584752  0.16504569  0.53461227    -0.79900
O493        O  0.24844979  0.15956842  0.45953259    -0.79800
O494        O  0.26653075  0.13772991  0.55473715    -0.79900
O495        O  0.23139937  0.12644683  0.44484779    -0.79800
O496        O  0.28123396  0.16657971  0.49774111    -0.79800
O497        O  0.21265618  0.16123157  0.49690871    -0.79900
C498        C  0.19666779  0.15225653  0.48303428     1.09900
C499        C  0.29761304  0.16193987  0.51314028     1.09800
C500        C  0.25826480  0.15934417  0.55309851     1.09900
C501        C  0.23648200  0.14899281  0.44279407     1.09800
O502        O  0.25261127  0.08385452  0.46872761    -0.79800
O503        O  0.25140783  0.08932096  0.53691663    -0.79900
O504        O  0.19474029  0.11558651  0.51834128    -0.79800
O505        O  0.30571797  0.12054966  0.48329014    -0.79800
O506        O  0.28872225  0.09102127  0.50375390    -0.79900
O507        O  0.21524650  0.08555924  0.50232469    -0.79800
O508        O  0.27243560  0.11314108  0.44976076    -0.79800
O509        O  0.22808563  0.11779046  0.55271410    -0.79900
Co510      Co  0.22626045  0.10691246  0.47567739     1.51500
Co511      Co  0.27456133  0.11447255  0.52682350     1.51700
Co512      Co  0.22270865  0.13973261  0.52351278     1.51600
Co513      Co  0.27455014  0.13982259  0.47483596     1.51500
O514        O  0.24948979  0.12539087  0.50012131    -1.41800
C515        C  0.26858251  0.09056717  0.45365223     1.09800
C516        C  0.23684744  0.09625935  0.55317844     1.09900
C517        C  0.19625553  0.09307185  0.51273575     1.09800
C518        C  0.30660247  0.09886454  0.49172296     1.09800
C519        C  0.77174222  0.76659703  0.25727633     0.02600
C520        C  0.75173418  0.76213588  0.27317485     0.02600
C521        C  0.73428571  0.74373129  0.26699757     0.02600
C522        C  0.73828843  0.72837296  0.24641424     0.02600
C523        C  0.75902572  0.73200492  0.23143040     0.02600
C524        C  0.77622399  0.75051678  0.23732596     0.02600
O525        O  0.62781846  0.54492212  0.27924172    -0.79800
O526        O  0.61241171  0.44820616  0.22520219    -0.79800
O527        O  0.58841496  0.50339506  0.21870703    -0.79900
O528        O  0.59914195  0.49312535  0.29413118    -0.79800
O529        O  0.61428714  0.48486180  0.19501134    -0.79900
O530        O  0.63374181  0.50764232  0.30754539    -0.79800
O531        O  0.58866237  0.46439858  0.25325549    -0.79800
O532        O  0.59481864  0.53254455  0.25979632    -0.79900
C533        C  0.60492344  0.54563093  0.27592200     1.09900
C534        C  0.59164762  0.45011969  0.23540272     1.09800
C535        C  0.59298212  0.49313123  0.19857933     1.09900
C536        C  0.61127588  0.50350820  0.31085315     1.09800
O537        O  0.67371099  0.48928555  0.27837866    -0.79800
O538        O  0.66357408  0.49746655  0.21168051    -0.79900
O539        O  0.63866336  0.55262371  0.23795172    -0.79800
O540        O  0.63448716  0.43832035  0.26126229    -0.79800
O541        O  0.66308749  0.45668874  0.24080516    -0.79900
O542        O  0.66971414  0.53059556  0.24913813    -0.79800
O543        O  0.64593517  0.46709989  0.29725361    -0.79800
O544        O  0.63477657  0.52288501  0.20033873    -0.79900
Co545      Co  0.65050555  0.51621298  0.27591103     1.51500
Co546      Co  0.63867082  0.47365187  0.22077875     1.51700
Co547      Co  0.61448206  0.52520221  0.23108445     1.51600
Co548      Co  0.61708943  0.46847308  0.27446240     1.51500
O549        O  0.62995171  0.49590354  0.25064658    -1.41800
C550        C  0.66808491  0.47274939  0.29340827     1.09800
C551        C  0.65599491  0.51392713  0.19761248     1.09900
C552        C  0.66145546  0.55059579  0.24129002     1.09800
C553        C  0.65560975  0.43799119  0.25186784     1.09800
C554        C  0.77424892  0.24141939  0.26247962     0.02600
C555        C  0.76707529  0.22665650  0.24233728     0.02600
C556        C  0.74406996  0.23040054  0.23098780     0.02600
C557        C  0.72785104  0.24819440  0.24056713     0.02600
C558        C  0.73523284  0.26312451  0.26050988     0.02600
C559        C  0.75761429  0.25845225  0.27265837     0.02600
C560        C  0.76889693  0.74191933  0.73453483     0.02600
C561        C  0.75637162  0.76432764  0.73107730     0.02600
C562        C  0.73868890  0.77215306  0.74820648     0.02600
C563        C  0.73132037  0.75608943  0.76716293     0.02600
C564        C  0.74425427  0.73385293  0.77109703     0.02600
C565        C  0.76295454  0.72661919  0.75461665     0.02600
O566        O  0.16586422  0.98472457  0.77828463    -0.79800
O567        O  0.16809510  0.00977852  0.71129462    -0.79800
O568        O  0.13618663  0.94122273  0.74497996    -0.79900
O569        O  0.14022573  0.05527323  0.74378448    -0.79800
O570        O  0.16664172  0.96395514  0.73249932    -0.79900
O571        O  0.16860575  0.03070724  0.75762108    -0.79800
O572        O  0.13905956  0.03529434  0.70121449    -0.79800
O573        O  0.13504860  0.96138763  0.78802265    -0.79900
C574        C  0.15741803  0.96696418  0.79007783     1.09900
C575        C  0.16122760  0.02897001  0.70062263     1.09800
C576        C  0.15870949  0.94365183  0.73999820     1.09900
C577        C  0.16233401  0.05144100  0.74968977     1.09800
O578        O  0.12273136  0.04241756  0.78108878    -0.79800
O579        O  0.12074820  0.95537573  0.70697721    -0.79900
O580        O  0.09005641  0.98749678  0.77677689    -0.79800
O581        O  0.09210215  0.01226336  0.71014869    -0.79800
O582        O  0.12164313  0.99829211  0.68708367    -0.79900
O583        O  0.11940620  0.99960365  0.80114079    -0.79800
O584        O  0.09270686  0.03367061  0.75629518    -0.79800
O585        O  0.09080648  0.96614101  0.73102845    -0.79900
Co586      Co  0.14398429  0.01290341  0.77668159     1.51500
Co587      Co  0.14413684  0.98323423  0.71237866     1.51700
Co588      Co  0.11329924  0.96690960  0.75880301     1.51600
Co589      Co  0.11595677  0.03115817  0.72927195     1.51500
O590        O  0.12933814  0.99856535  0.74425907    -1.41800
C591        C  0.10100156  0.04586877  0.77397363     1.09800
C592        C  0.09829543  0.95514750  0.71224929     1.09900
C593        C  0.09699025  0.99468793  0.79756435     1.09800
C594        C  0.09950604  0.00472920  0.68965097     1.09800
O595        O  0.74636221  0.41322480  0.53402465    -0.79800
O596        O  0.75050193  0.41863112  0.46762737    -0.79800
O597        O  0.80220533  0.38067072  0.52015964    -0.79900
O598        O  0.69329366  0.38515016  0.47776333    -0.79800
O599        O  0.78729088  0.41335851  0.50289280    -0.79900
O600        O  0.71161664  0.41365066  0.49834561    -0.79800
O601        O  0.72919040  0.39155071  0.44668927    -0.79800
O602        O  0.76686497  0.38322175  0.55116982    -0.79900
C603        C  0.76074200  0.40569290  0.55021173     1.09900
C604        C  0.73704949  0.41330931  0.44965897     1.09800
C605        C  0.80386066  0.40325327  0.51534641     1.09900
C606        C  0.69334534  0.40677427  0.48632876     1.09800
O607        O  0.69590434  0.36503698  0.51584763    -0.79800
O608        O  0.80069060  0.36775719  0.47866120    -0.79900
O609        O  0.74657914  0.33645080  0.53449795    -0.79800
O610        O  0.74896256  0.34288262  0.45641101    -0.79800
O611        O  0.76924426  0.37490250  0.44406653    -0.79900
O612        O  0.72683860  0.36684742  0.55127686    -0.79800
O613        O  0.71351445  0.33769318  0.49225784    -0.79800
O614        O  0.78313391  0.33673929  0.49744194    -0.79900
Co615      Co  0.72245663  0.38961473  0.52261351     1.51500
Co616      Co  0.77438021  0.39317526  0.47568504     1.51700
Co617      Co  0.77215483  0.35960137  0.52325258     1.51600
Co618      Co  0.72358217  0.36432946  0.47071361     1.51500
O619        O  0.74825124  0.37623617  0.49803067    -1.41800
C620        C  0.69760863  0.34321159  0.50786776     1.09800
C621        C  0.80002719  0.34508937  0.48402665     1.09900
C622        C  0.73335475  0.34460648  0.55160963     1.09800
C623        C  0.76241745  0.35301850  0.44070761     1.09800
C624        C  0.01889651  0.51672789  0.49869133     0.02600
C625        C  0.00131291  0.52238382  0.51688960     0.02600
C626        C  0.98145088  0.50607172  0.52086496     0.02600
C627        C  0.97726111  0.48600285  0.50472880     0.02600
C628        C  0.99490720  0.48038938  0.48666679     0.02600
C629        C  0.01520987  0.49617530  0.48315916     0.02600
O630        O  0.79268556  0.63008024  0.03266781    -0.79800
O631        O  0.69834223  0.63497648  0.96990605    -0.79800
O632        O  0.75520516  0.66091084  0.96579985    -0.79900
O633        O  0.73956086  0.66272657  0.03609886    -0.79800
O634        O  0.73778378  0.63204231  0.94422702    -0.79900
O635        O  0.75305437  0.63229975  0.05815150    -0.79800
O636        O  0.71235454  0.66432305  0.99350774    -0.79800
O637        O  0.78288378  0.66023720  0.00814907    -0.79900
C638        C  0.79543630  0.65196540  0.02557538     1.09900
C639        C  0.69928200  0.65737811  0.97585699     1.09800
C640        C  0.74514393  0.65408678  0.94622250     1.09900
C641        C  0.74867151  0.65503520  0.05579360     1.09800
O642        O  0.73535649  0.58653426  0.03591491    -0.79800
O643        O  0.75009633  0.58485877  0.96790131    -0.79900
O644        O  0.80157075  0.61249012  0.99363514    -0.79800
O645        O  0.68725842  0.61951401  0.00902390    -0.79800
O646        O  0.70692062  0.58821583  0.99385377    -0.79900
O647        O  0.77858990  0.58407533  0.00969656    -0.79800
O648        O  0.71351757  0.61767628  0.04850036    -0.79800
O649        O  0.77512346  0.61264476  0.95382499    -0.79900
Co650      Co  0.76311328  0.60849565  0.03136222     1.51500
Co651      Co  0.72509996  0.61007273  0.97168355     1.51700
Co652      Co  0.77586225  0.63654060  0.98207219     1.51600
Co653      Co  0.71595344  0.64072737  0.02006242     1.51500
O654        O  0.74503395  0.62408420  0.00133054    -1.41800
C655        C  0.71798348  0.59492858  0.04838185     1.09800
C656        C  0.76710914  0.59081609  0.95378733     1.09900
C657        C  0.79872511  0.59048809  0.00054327     1.09800
C658        C  0.68783963  0.59690631  0.00341069     1.09800
C659        C  0.47885178  0.50925008  0.98272218     0.02600
C660        C  0.49672568  0.52624762  0.99117840     0.02600
C661        C  0.51196607  0.52005376  0.01151458     0.02600
C662        C  0.50834394  0.49742091  0.02397010     0.02600
C663        C  0.49048248  0.48059158  0.01529829     0.02600
C664        C  0.47494426  0.48714770  0.99567632     0.02600
O665        O  0.78802777  0.16464887  0.99992678    -0.79800
O666        O  0.72193893  0.16787102  0.99374378    -0.79800
O667        O  0.77589256  0.12823247  0.94489525    -0.79900
O668        O  0.73170442  0.13602111  0.05274328    -0.79800
O669        O  0.75810660  0.16119321  0.95830651    -0.79900
O670        O  0.75156323  0.16485849  0.03440421    -0.79800
O671        O  0.70132527  0.14130583  0.01600183    -0.79800
O672        O  0.80652713  0.13443015  0.98078596    -0.79900
C673        C  0.80536908  0.15691892  0.98699853     1.09900
C674        C  0.70434428  0.16288398  0.00773613     1.09800
C675        C  0.77035190  0.15050313  0.94197892     1.09900
C676        C  0.73963956  0.15780638  0.05261586     1.09800
O677        O  0.77044195  0.11717037  0.05187129    -0.79800
O678        O  0.73509878  0.11406227  0.94677644    -0.79900
O679        O  0.79098212  0.08839184  0.00342681    -0.79800
O680        O  0.71201954  0.09209307  0.99791686    -0.79800
O681        O  0.69934315  0.12310710  0.97649247    -0.79900
O682        O  0.80672512  0.12009522  0.02177059    -0.79800
O683        O  0.74794486  0.08888841  0.03392387    -0.79800
O684        O  0.75447735  0.08533929  0.96744197    -0.79900
Co685      Co  0.77692827  0.14149804  0.02469691     1.51500
Co686      Co  0.73096990  0.14131167  0.97133379     1.51700
Co687      Co  0.77947141  0.10951710  0.97642480     1.51600
Co688      Co  0.72572773  0.11456735  0.02283352     1.51500
O689        O  0.75326092  0.12646261  0.99876843    -1.41800
C690        C  0.76222932  0.09531760  0.05084196     1.09800
C691        C  0.74040945  0.09164411  0.95026945     1.09900
C692        C  0.80797530  0.09770667  0.01598526     1.09800
C693        C  0.69601098  0.10160827  0.98436037     1.09800
O694        O  0.36678330  0.52045589  0.69965561    -0.79800
O695        O  0.36021008  0.47575828  0.80089571    -0.79800
O696        O  0.34077712  0.45801742  0.74747312    -0.79900
O697        O  0.33704021  0.53509398  0.74762606    -0.79800
O698        O  0.37104884  0.44293409  0.76818531    -0.79900
O699        O  0.36865750  0.55431408  0.73356766    -0.79800
O700        O  0.33240922  0.49677183  0.78077556    -0.79800
O701        O  0.33833999  0.49601208  0.71425928    -0.79900
C702        C  0.34508364  0.51211738  0.69929224     1.09900
C703        C  0.33807196  0.48228737  0.79778863     1.09800
C704        C  0.34952643  0.44096170  0.76019686     1.09900
C705        C  0.34597502  0.55387705  0.73782000     1.09800
O706        O  0.41270838  0.53325867  0.75372465    -0.79800
O707        O  0.41581379  0.46776341  0.75507049    -0.79900
O708        O  0.38556124  0.48140913  0.69518253    -0.79800
O709        O  0.37410558  0.51640448  0.80718978    -0.79800
O710        O  0.40763325  0.50012605  0.79374638    -0.79900
O711        O  0.41390875  0.50050706  0.71523889    -0.79800
O712        O  0.38207569  0.54937415  0.77429824    -0.79800
O713        O  0.39053060  0.44865902  0.72993894    -0.79900
Co714      Co  0.39022726  0.52472900  0.72765443     1.51500
Co715      Co  0.38853160  0.47412587  0.77716683     1.51700
Co716      Co  0.36375687  0.47318992  0.72421810     1.51600
Co717      Co  0.35684778  0.52230051  0.77493917     1.51500
O718        O  0.37485356  0.49854985  0.75100376    -1.41800
C719        C  0.40484493  0.54765123  0.76987922     1.09800
C720        C  0.41168576  0.45144964  0.73923774     1.09900
C721        C  0.40720345  0.48950170  0.69612462     1.09800
C722        C  0.39634368  0.51120854  0.81051229     1.09800
O723        O  0.77768478  0.88132382  0.45117314    -0.79800
O724        O  0.72788970  0.88417429  0.55118629    -0.79800
O725        O  0.71998691  0.91662108  0.50009615    -0.79900
O726        O  0.79427233  0.90451848  0.50582754    -0.79800
O727        O  0.69665614  0.88813659  0.51548777    -0.79900
O728        O  0.80712384  0.87198995  0.48641006    -0.79800
O729        O  0.75475228  0.91075979  0.53765030    -0.79800
O730        O  0.76076336  0.91355357  0.46842995    -0.79900
C731        C  0.77472255  0.90437063  0.45251412     1.09900
C732        C  0.73662461  0.90571498  0.55091041     1.09800
C733        C  0.69985404  0.91038875  0.50950406     1.09900
C734        C  0.81042577  0.89392431  0.49321745     1.09800
O735        O  0.77893121  0.82930616  0.50145281    -0.79800
O736        O  0.71092016  0.84068891  0.49597391    -0.79900
O737        O  0.73621723  0.87251738  0.44465104    -0.79800
O738        O  0.76428946  0.86163233  0.55631950    -0.79800
O739        O  0.74237189  0.83527327  0.53573437    -0.79900
O740        O  0.74851490  0.83796381  0.46065427    -0.79800
O741        O  0.79929126  0.85487530  0.52508774    -0.79800
O742        O  0.70098761  0.87366032  0.47514472    -0.79900
Co743      Co  0.77545192  0.85558740  0.47718614     1.51500
Co744      Co  0.72197515  0.86195580  0.52264116     1.51700
Co745      Co  0.73159149  0.89355156  0.47474499     1.51600
Co746      Co  0.77605334  0.88323863  0.52868226     1.51500
O747        O  0.75123249  0.87360122  0.50081752    -1.41800
C748        C  0.79545820  0.83331422  0.51705771     1.09800
C749        C  0.69904163  0.85091406  0.47907834     1.09900
C750        C  0.73902178  0.84952456  0.44302556     1.09800
C751        C  0.75463095  0.84055914  0.55456435     1.09800
O752        O  0.08467320  0.54153920  0.24890396    -0.79800
O753        O  0.07496893  0.47366825  0.24976796    -0.79800
O754        O  0.11704847  0.51942569  0.19543997    -0.79900
O755        O  0.10802846  0.48679320  0.30626527    -0.79800
O756        O  0.08328808  0.50559562  0.21132724    -0.79900
O757        O  0.08093429  0.50862210  0.28710748    -0.79800
O758        O  0.10025851  0.45331152  0.27345400    -0.79800
O759        O  0.11631778  0.55396899  0.22754056    -0.79900
C760        C  0.09375116  0.55506565  0.23261680     1.09900
C761        C  0.07874132  0.45744695  0.26562012     1.09800
C762        C  0.09426082  0.51590501  0.19391285     1.09900
C763        C  0.08688780  0.49607115  0.30542906     1.09800
O764        O  0.12997055  0.52388796  0.30239291    -0.79800
O765        O  0.12736075  0.47779804  0.20074336    -0.79900
O766        O  0.16025065  0.53463078  0.25171103    -0.79800
O767        O  0.14989028  0.45950650  0.25375164    -0.79800
O768        O  0.11777606  0.44606409  0.23448433    -0.79900
O769        O  0.13174487  0.55697598  0.26791389    -0.79800
O770        O  0.15611308  0.49786661  0.28639506    -0.79800
O771        O  0.15844647  0.49570508  0.21898450    -0.79900
Co772      Co  0.10676038  0.53031190  0.27452860     1.51500
Co773      Co  0.10130371  0.47827108  0.22634571     1.51700
Co774      Co  0.13751397  0.52384634  0.22590454     1.51600
Co775      Co  0.12877699  0.47651534  0.27748031     1.51500
O776        O  0.11847363  0.50226918  0.25104105    -1.41800
C777        C  0.15108450  0.51430432  0.30175545     1.09800
C778        C  0.15016443  0.48134243  0.20293159     1.09900
C779        C  0.15394407  0.55424196  0.26203534     1.09800
C780        C  0.13957994  0.44289244  0.24148906     1.09800
C781        C  0.48351555  0.49360493  0.51808778     0.02600
C782        C  0.47857095  0.51577762  0.50540171     0.02600
C783        C  0.49245503  0.52222255  0.48449857     0.02600
C784        C  0.51107685  0.50646092  0.47583739     0.02600
C785        C  0.51739655  0.48538680  0.48958316     0.02600
C786        C  0.50261487  0.47805769  0.50962115     0.02600
C787        C  0.98116212  0.49352795  0.98081777     0.02600
C788        C  0.00062012  0.47729644  0.98613226     0.02600
C789        C  0.01462164  0.48033199  0.00772430     0.02600
C790        C  0.00798799  0.49850215  0.02508968     0.02600
C791        C  0.98873650  0.51508502  0.01955630     0.02600
C792        C  0.97480098  0.51192122  0.99789391     0.02600
C793        C  0.05085452  0.51434987  0.13848597     0.19000
C794        C  0.03648134  0.49530652  0.12902058    -0.19100
C795        C  0.02862467  0.49560743  0.10468875    -0.11400
C796        C  0.03491918  0.51512884  0.08916890     0.21300
C797        C  0.04835816  0.53469856  0.09899330    -0.20700
C798        C  0.05627314  0.53435675  0.12331075    -0.11500
C799        C  0.02681519  0.51641198  0.06314759    -0.15700
C800        C  0.01859611  0.49702118  0.05027542    -0.29600
C801        C  0.06047812  0.51227039  0.16388739    -0.03800
C802        C  0.08175819  0.52236805  0.17088740    -0.40400
H803        H  0.03169914  0.47984708  0.14037871     0.12400
H804        H  0.01743980  0.48061546  0.09833171     0.12000
H805        H  0.05292304  0.55029476  0.08773310     0.11500
H806        H  0.06654092  0.54982193  0.13013493     0.11700
H807        H  0.02785423  0.53406370  0.05418061     0.14500
H808        H  0.01990043  0.47887433  0.05808735     0.13200
H809        H  0.05134356  0.49976290  0.17624033     0.10900
H810        H  0.09205373  0.53335729  0.15808645     0.12900
C811        C  0.45511264  0.49372652  0.58366552     0.19000
C812        C  0.46015118  0.50794132  0.60449236    -0.19100
C813        C  0.44843066  0.50354760  0.62677699    -0.11400
C814        C  0.43108245  0.48471976  0.62902711     0.21300
C815        C  0.42600052  0.47039013  0.60820636    -0.20700
C816        C  0.43791309  0.47468986  0.58585235    -0.11500
C817        C  0.41652664  0.48110309  0.65200610    -0.15700
C818        C  0.42359384  0.48901990  0.67439861    -0.29600
C819        C  0.46778120  0.50021092  0.56024895    -0.03800
C820        C  0.46846927  0.48633137  0.53980937    -0.40400
H821        H  0.47311041  0.52285148  0.60347708     0.12400
H822        H  0.45246877  0.51558690  0.64192549     0.12000
H823        H  0.41250881  0.45596284  0.60915947     0.11500
H824        H  0.43311533  0.46344548  0.57031766     0.11700
H825        H  0.39886571  0.47229752  0.65019495     0.14500
H826        H  0.44152088  0.49703316  0.67674378     0.13200
H827        H  0.47807348  0.51720038  0.56010912     0.10900
H828        H  0.45980868  0.46851307  0.53950742     0.12900
C829        C  0.44115390  0.51374875  0.86608970     0.19000
C830        C  0.46645772  0.51142041  0.86902146    -0.19100
C831        C  0.47735908  0.51323014  0.89214001    -0.11400
C832        C  0.46331223  0.51699435  0.91324488     0.21300
C833        C  0.43795013  0.51984960  0.91035142    -0.20700
C834        C  0.42702816  0.51819453  0.88713011    -0.11500
C835        C  0.47594375  0.51716094  0.93765986    -0.15700
C836        C  0.46480693  0.51349457  0.95937641    -0.29600
C837        C  0.43032997  0.50998051  0.84112077    -0.03800
C838        C  0.40773090  0.51709026  0.83453637    -0.40400
H839        H  0.47789899  0.50794781  0.85332981     0.12400
H840        H  0.49689668  0.51107029  0.89357945     0.12000
H841        H  0.42637425  0.52325370  0.92591301     0.11500
H842        H  0.40742718  0.51974705  0.88596349     0.11700
H843        H  0.49568103  0.51831912  0.93760140     0.14500
H844        H  0.44534634  0.51058513  0.95968533     0.13200
H845        H  0.44150346  0.50077324  0.82759110     0.10900
H846        H  0.39650667  0.52702164  0.84744676     0.12900
C847        C  0.90918655  0.53835077  0.00154697     0.19000
C848        C  0.90895800  0.56162560  0.99070925    -0.19100
C849        C  0.88708530  0.57458198  0.98812352    -0.11400
C850        C  0.86482143  0.56473431  0.99620401     0.21300
C851        C  0.86506672  0.54131893  0.00686722    -0.20700
C852        C  0.88697871  0.52841995  0.00955626    -0.11500
C853        C  0.84236426  0.58021780  0.99432891    -0.15700
C854        C  0.81946688  0.57300889  0.99997391    -0.29600
C855        C  0.93218527  0.52442398  0.00594752    -0.03800
C856        C  0.95295381  0.52754275  0.99320750    -0.40400
H857        H  0.92568428  0.57023919  0.98483997     0.12400
H858        H  0.88764914  0.59264089  0.98008130     0.12000
H859        H  0.84861503  0.53297269  0.01369568     0.11500
H860        H  0.88659246  0.51060324  0.01813067     0.11700
H861        H  0.84505615  0.59904975  0.98865280     0.14500
H862        H  0.81581691  0.55440071  0.00559329     0.13200
H863        H  0.93180407  0.51022672  0.01978163     0.10900
H864        H  0.95359494  0.54007749  0.97792950     0.12900
C865        C  0.57819269  0.54510661  0.01872225     0.19000
C866        C  0.60119366  0.53381589  0.01862872    -0.19100
C867        C  0.62273421  0.54763571  0.01808654    -0.11400
C868        C  0.62196457  0.57334990  0.01736021     0.21300
C869        C  0.59898548  0.58471716  0.01839431    -0.20700
C870        C  0.57737862  0.57085919  0.01895650    -0.11500
C871        C  0.64447904  0.58890806  0.01531185    -0.15700
C872        C  0.66628787  0.58072264  0.00718606    -0.29600
C873        C  0.55598170  0.52914774  0.01672632    -0.03800
C874        C  0.53257933  0.53659402  0.01876492    -0.40400
H875        H  0.60254075  0.51406924  0.01861913     0.12400
H876        H  0.63988899  0.53797139  0.01819005     0.12000
H877        H  0.59769475  0.60446803  0.01809943     0.11500
H878        H  0.56021503  0.58048006  0.01886299     0.11700
H879        H  0.64262822  0.60825400  0.01938479     0.14500
H880        H  0.66839875  0.56173245  0.00198311     0.13200
H881        H  0.55908246  0.51010103  0.01198693     0.10900
H882        H  0.52837574  0.55547682  0.02298730     0.12900
C883        C  0.06303284  0.48691621  0.37121051     0.19000
C884        C  0.07534004  0.48578554  0.39367899    -0.19100
C885        C  0.06281089  0.48849103  0.41575444    -0.11400
C886        C  0.03745806  0.49214547  0.41590702     0.21300
C887        C  0.02505469  0.49256746  0.39343260    -0.20700
C888        C  0.03760492  0.48991444  0.37135282    -0.11500
C889        C  0.02317482  0.49603927  0.43875371    -0.15700
C890        C  0.03151171  0.49247813  0.46166651    -0.29600
C891        C  0.07757049  0.48541252  0.34827405    -0.03800
C892        C  0.07012485  0.49417331  0.32649956    -0.40400
H893        H  0.09491151  0.48339581  0.39415946     0.12400
H894        H  0.07325135  0.48818568  0.43246019     0.12000
H895        H  0.00550310  0.49507252  0.39292628     0.11500
H896        H  0.02727630  0.49018104  0.35455223     0.11700
H897        H  0.00429997  0.50162503  0.43663427     0.14500
H898        H  0.05016465  0.48716667  0.46509196     0.13200
H899        H  0.09611028  0.47869899  0.34989842     0.10900
H900        H  0.05220376  0.50218732  0.32452595     0.12900
C901        C  0.58189224  0.45577002  0.49184129     0.19000
C902        C  0.60337933  0.46248706  0.50415788    -0.19100
C903        C  0.62531285  0.44998815  0.50008336    -0.11400
C904        C  0.62634979  0.43014815  0.48364725     0.21300
C905        C  0.60477742  0.42329142  0.47152624    -0.20700
C906        C  0.58287960  0.43599228  0.47540479    -0.11500
C907        C  0.64892854  0.41504578  0.48021206    -0.15700
C908        C  0.67166127  0.42305361  0.48534995    -0.29600
C909        C  0.55873414  0.46898391  0.49766707    -0.03800
C910        C  0.53921454  0.47044623  0.48267376    -0.40400
H911        H  0.60316617  0.47740848  0.51718730     0.12400
H912        H  0.64114415  0.45547822  0.51050060     0.12000
H913        H  0.60480978  0.40785282  0.45912403     0.11500
H914        H  0.56664742  0.42979989  0.46603244     0.11700
H915        H  0.64660364  0.39633446  0.47393053     0.14500
H916        H  0.67439298  0.44181230  0.49118460     0.13200
H917        H  0.55805329  0.47896719  0.51483182     0.10900
H918        H  0.53980259  0.46233542  0.46461032     0.12900
C919        C  0.91300525  0.45725247  0.51772238     0.19000
C920        C  0.90263210  0.44152734  0.53506810    -0.19100
C921        C  0.87839409  0.43354441  0.53283626    -0.11400
C922        C  0.86365721  0.44133591  0.51318837     0.21300
C923        C  0.87397430  0.45748893  0.49616297    -0.20700
C924        C  0.89818118  0.46541167  0.49839172    -0.11500
C925        C  0.83805084  0.43242793  0.50890271    -0.15700
C926        C  0.82624932  0.41628171  0.52324270    -0.29600
C927        C  0.93877545  0.46583163  0.52096205    -0.03800
C928        C  0.95251055  0.47434207  0.50239327    -0.40400
H929        H  0.91341490  0.43519355  0.55035693     0.12400
H930        H  0.87161926  0.42118519  0.54655424     0.12000
H931        H  0.86324935  0.46400404  0.48091206     0.11500
H932        H  0.90501529  0.47826339  0.48508796     0.11700
H933        H  0.82915615  0.43804234  0.49209406     0.14500
H934        H  0.83481719  0.40938979  0.53961926     0.13200
H935        H  0.94664036  0.46496830  0.53912178     0.10900
H936        H  0.94549945  0.47267889  0.48395074     0.12900
C937        C  0.76477442  0.81374690  0.61944729     0.19000
C938        C  0.77052570  0.82470329  0.64198034    -0.19100
C939        C  0.76832179  0.81172430  0.66390086    -0.11400
C940        C  0.76042365  0.78720616  0.66384860     0.21300
C941        C  0.75531116  0.77607830  0.64125038    -0.20700
C942        C  0.75751083  0.78905779  0.61934560    -0.11500
C943        C  0.75674490  0.77253897  0.68658608    -0.15700
C944        C  0.76190974  0.78009673  0.70948483    -0.29600
C945        C  0.76610088  0.82899874  0.59684014    -0.03800
C946        C  0.75586478  0.82301664  0.57517099    -0.40400
H947        H  0.77630882  0.84363799  0.64270828     0.12400
H948        H  0.77251951  0.82123005  0.68066706     0.12000
H949        H  0.74940833  0.75718240  0.64051059     0.11500
H950        H  0.75347853  0.77956045  0.60251341     0.11700
H951        H  0.74900310  0.75435141  0.68441367     0.14500
H952        H  0.76903264  0.79823494  0.71292518     0.13200
H953        H  0.77455915  0.84689242  0.59864286     0.10900
H954        H  0.74655410  0.80570049  0.57280466     0.12900
C955        C  0.73577480  0.68206190  0.88131782     0.19000
C956        C  0.72669309  0.67307034  0.85900922    -0.19100
C957        C  0.72732688  0.68731622  0.83776114    -0.11400
C958        C  0.73724162  0.71106073  0.83817395     0.21300
C959        C  0.74569824  0.72035470  0.86057202    -0.20700
C960        C  0.74511567  0.70610692  0.88182168    -0.11500
C961        C  0.73922036  0.72669167  0.81585672    -0.15700
C962        C  0.73886664  0.71799585  0.79275505    -0.29600
C963        C  0.73580519  0.66536920  0.90306459    -0.03800
C964        C  0.74331572  0.67171978  0.92569863    -0.40400
H965        H  0.71919899  0.65477605  0.85793287     0.12400
H966        H  0.71991377  0.67961396  0.82114954     0.12000
H967        H  0.75326989  0.73862880  0.86156539     0.11500
H968        H  0.75238562  0.71408867  0.89832547     0.11700
H969        H  0.74285787  0.74604233  0.81856654     0.14500
H970        H  0.73743009  0.69848268  0.78957845     0.13200
H971        H  0.72991646  0.64662720  0.90008330     0.10900
H972        H  0.74926113  0.69019978  0.92952624     0.12900
C973        C  0.74458582  0.20429166  0.16493416     0.19000
C974        C  0.75647840  0.21183372  0.14356545    -0.19100
C975        C  0.75259145  0.19972949  0.12135721    -0.11400
C976        C  0.73662690  0.17961016  0.11989376     0.21300
C977        C  0.72484044  0.17193320  0.14130480    -0.20700
C978        C  0.72863561  0.18415414  0.16354801    -0.11500
C979        C  0.73342651  0.16507583  0.09694791    -0.15700
C980        C  0.73828395  0.17379479  0.07444999    -0.29600
C981        C  0.75044602  0.21720318  0.18826671    -0.03800
C982        C  0.73708197  0.21596906  0.20884883    -0.40400
H983        H  0.76912257  0.22704013  0.14409620     0.12400
H984        H  0.76279163  0.20577653  0.10562926     0.12000
H985        H  0.71281512  0.15622835  0.14087173     0.11500
H986        H  0.71956315  0.17729903  0.17962724     0.11700
H987        H  0.72767588  0.14615634  0.09878773     0.14500
H988        H  0.74361698  0.19272923  0.07211244     0.13200
H989        H  0.76638298  0.22900539  0.18837440     0.10900
H990        H  0.72003666  0.20597555  0.20913725     0.12900
C991        C  0.76027746  0.31305595  0.38213811     0.19000
C992        C  0.75506815  0.28866071  0.37601379    -0.19100
C993        C  0.75574532  0.28071053  0.35166356    -0.11400
C994        C  0.76148392  0.29709586  0.33268264     0.21300
C995        C  0.76674126  0.32147208  0.33882303    -0.20700
C996        C  0.76622266  0.32937624  0.36317267    -0.11500
C997        C  0.76013288  0.28996021  0.30632849    -0.15700
C998        C  0.76160609  0.26664749  0.29847910    -0.29600
C999        C  0.75724489  0.32142889  0.40799456    -0.03800
C1000       C  0.76866840  0.34126807  0.41711775    -0.40400
H1001       H  0.75002646  0.27577344  0.39010478     0.12400
H1002       H  0.75079464  0.26195596  0.34780792     0.12000
H1003       H  0.77081128  0.33461099  0.32464834     0.11500
H1004       H  0.76951465  0.34853299  0.36686453     0.11700
H1005       H  0.75775046  0.30439008  0.29296485     0.14500
H1006       H  0.76650458  0.25244845  0.31135576     0.13200
H1007       H  0.74459220  0.31148500  0.41950793     0.10900
H1008       H  0.78185598  0.35083158  0.40594093     0.12900
C1009       C  0.72698547  0.43863285  0.38546557     0.19000
C1010       C  0.73010673  0.42744690  0.36263710    -0.19100
C1011       C  0.72416491  0.43983621  0.34133800    -0.11400
C1012       C  0.71481835  0.46362890  0.34254882     0.21300
C1013       C  0.71358219  0.47564609  0.36515062    -0.20700
C1014       C  0.71947141  0.46317189  0.38659973    -0.11500
C1015       C  0.70266310  0.47449792  0.32121616    -0.15700
C1016       C  0.68670127  0.46107020  0.30832970    -0.29600
C1017       C  0.72959717  0.42312085  0.40727148    -0.03800
C1018       C  0.73314325  0.43126930  0.43015434    -0.40400
H1019       H  0.73614762  0.40863385  0.36131546     0.12400
H1020       H  0.72558415  0.43038346  0.32401869     0.12000
H1021       H  0.70630510  0.49400529  0.36636573     0.11500
H1022       H  0.71669625  0.47227527  0.40390454     0.11700
H1023       H  0.70298551  0.49426427  0.31908246     0.14500
H1024       H  0.68397054  0.44188270  0.31272657     0.13200
H1025       H  0.72938239  0.40348168  0.40400986     0.10900
H1026       H  0.73541431  0.45059140  0.43409312     0.12900
C1027       C  0.69643553  0.54324781  0.08887357     0.19000
C1028       C  0.70972771  0.53222789  0.10764413    -0.19100
C1029       C  0.69799647  0.52478750  0.12892974    -0.11400
C1030       C  0.67272269  0.52823292  0.13155793     0.21300
C1031       C  0.65924430  0.53710888  0.11173458    -0.20700
C1032       C  0.67097900  0.54459816  0.09054077    -0.11500
C1033       C  0.65963511  0.52330264  0.15456950    -0.15700
C1034       C  0.67056674  0.52027622  0.17626980    -0.29600
C1035       C  0.70960114  0.55619139  0.06944468    -0.03800
C1036       C  0.70296338  0.57897715  0.06350274    -0.40400
H1037       H  0.72935425  0.53076124  0.10646208     0.12400
H1038       H  0.70893473  0.51692904  0.14329385     0.12000
H1039       H  0.63967916  0.53928919  0.11304146     0.11500
H1040       H  0.66031508  0.55247032  0.07590628     0.11700
H1041       H  0.63986152  0.52243570  0.15368447     0.14500
H1042       H  0.69018527  0.52041992  0.17821205     0.13200
H1043       H  0.72670880  0.54875326  0.06287143     0.10900
H1044       H  0.68698592  0.58714225  0.07183899     0.12900
C1045       C  0.56273665  0.48839929  0.13400165     0.19000
C1046       C  0.56846597  0.47597326  0.11223806    -0.19100
C1047       C  0.55540506  0.48018608  0.09058447    -0.11400
C1048       C  0.53611640  0.49711479  0.08997743     0.21300
C1049       C  0.52999051  0.50912278  0.11188113    -0.20700
C1050       C  0.54301905  0.50485559  0.13357541    -0.11500
C1051       C  0.52271125  0.50366953  0.06692793    -0.15700
C1052       C  0.52351659  0.49078017  0.04581584    -0.29600
C1053       C  0.57915442  0.48522844  0.15578554    -0.03800
C1054       C  0.57434898  0.49318772  0.17869843    -0.40400
H1055       H  0.58358912  0.46330950  0.11180748     0.12400
H1056       H  0.56113343  0.47068253  0.07427414     0.12000
H1057       H  0.51528810  0.52229670  0.11212936     0.11500
H1058       H  0.53805190  0.51520034  0.14962256     0.11700
H1059       H  0.51098045  0.51964237  0.06752518     0.14500
H1060       H  0.53351219  0.47375128  0.04493614     0.13200
H1061       H  0.59665621  0.47660971  0.15247271     0.10900
H1062       H  0.55685514  0.50130947  0.18287143     0.12900
C1063       C  0.55127978  0.51005704  0.41692286     0.19000
C1064       C  0.57541977  0.51648131  0.41151603    -0.19100
C1065       C  0.58433629  0.51512628  0.38758211    -0.11400
C1066       C  0.56929150  0.50714603  0.36820120     0.21300
C1067       C  0.54499680  0.50114150  0.37359048    -0.20700
C1068       C  0.53608422  0.50252976  0.39754182    -0.11500
C1069       C  0.57850763  0.50306355  0.34268942    -0.15700
C1070       C  0.60059415  0.51036039  0.33478774    -0.29600
C1071       C  0.54328527  0.50951526  0.44306064    -0.03800
C1072       C  0.51975450  0.50957162  0.45004761    -0.40400
H1073       H  0.58765292  0.52211161  0.42600499     0.12400
H1074       H  0.60327218  0.51956757  0.38479949     0.12000
H1075       H  0.53295674  0.49472371  0.35926478     0.11500
H1076       H  0.51754523  0.49673643  0.40081016     0.11700
H1077       H  0.56696262  0.49281894  0.33018499     0.14500
H1078       H  0.61232795  0.52099028  0.34664196     0.13200
H1079       H  0.55729945  0.50895566  0.45704272     0.10900
H1080       H  0.50572679  0.51253428  0.43643762     0.12900
C1081       C  0.67852791  0.37146035  0.26037704     0.19000
C1082       C  0.67700851  0.35345202  0.27858235    -0.19100
C1083       C  0.68937873  0.33110198  0.27613239    -0.11400
C1084       C  0.70330894  0.32618164  0.25514185     0.21300
C1085       C  0.70455903  0.34413500  0.23689679    -0.20700
C1086       C  0.69240013  0.36643051  0.23942389    -0.11500
C1087       C  0.71632253  0.30262162  0.25079317    -0.15700
C1088       C  0.72016568  0.28481197  0.26736422    -0.29600
C1089       C  0.66430957  0.39460589  0.26285906    -0.03800
C1090       C  0.67092259  0.41569375  0.25198556    -0.40400
H1091       H  0.66616421  0.35668334  0.29475836     0.12400
H1092       H  0.68757037  0.31771374  0.29047224     0.12000
H1093       H  0.71489099  0.34083277  0.22039338     0.11500
H1094       H  0.69338376  0.37937052  0.22457149     0.11700
H1095       H  0.72406570  0.30001566  0.23271307     0.14500
H1096       H  0.71414063  0.28682046  0.28607185     0.13200
H1097       H  0.64787728  0.39420917  0.27385670     0.10900
H1098       H  0.68800141  0.41663877  0.24210272     0.12900
C1099       C  0.73854047  0.80719066  0.38616060     0.19000
C1100       C  0.75580454  0.79077232  0.37681660    -0.19100
C1101       C  0.75451887  0.78260789  0.35259997    -0.11400
C1102       C  0.73584911  0.79070304  0.33690847     0.21300
C1103       C  0.71805032  0.80643558  0.34648040    -0.20700
C1104       C  0.71933552  0.81462173  0.37075266    -0.11500
C1105       C  0.73379851  0.78214916  0.31098697    -0.15700
C1106       C  0.75285977  0.77322275  0.29828050    -0.29600
C1107       C  0.74162613  0.81638885  0.41176315    -0.03800
C1108       C  0.73204192  0.83758774  0.41972633    -0.40400
H1109       H  0.77058272  0.78441032  0.38824686     0.12400
H1110       H  0.76804686  0.76965168  0.34646632     0.12000
H1111       H  0.70313167  0.81253192  0.33508689     0.11500
H1112       H  0.70510684  0.82657162  0.37731229     0.11700
H1113       H  0.71620154  0.78359824  0.30207034     0.14500
H1114       H  0.77084945  0.77426282  0.30640042     0.13200
H1115       H  0.75419175  0.80672034  0.42363555     0.10900
H1116       H  0.72090050  0.84843371  0.40753571     0.12900
C1117       C  0.76208044  0.68107637  0.12073021     0.19000
C1118       C  0.76705040  0.67003036  0.14331532    -0.19100
C1119       C  0.76879779  0.68392373  0.16473659    -0.11400
C1120       C  0.76538143  0.70943202  0.16425548     0.21300
C1121       C  0.76120632  0.72063370  0.14157832    -0.20700
C1122       C  0.75951958  0.70671511  0.12008735    -0.11500
C1123       C  0.76555334  0.72489455  0.18684434    -0.15700
C1124       C  0.76250875  0.71590690  0.20954770    -0.29600
C1125       C  0.75957722  0.66492569  0.09872973    -0.03800
C1126       C  0.75269624  0.67240198  0.07629400    -0.40400
H1127       H  0.76944475  0.65041456  0.14446997     0.12400
H1128       H  0.77291598  0.67444269  0.18150625     0.12000
H1129       H  0.75879138  0.74025003  0.14051991     0.11500
H1130       H  0.75609928  0.71626749  0.10320984     0.11700
H1131       H  0.76634266  0.74461755  0.18461038     0.14500
H1132       H  0.76000693  0.69648085  0.21201005     0.13200
H1133       H  0.76281379  0.64552019  0.10142206     0.10900
H1134       H  0.74881021  0.69147564  0.07279946     0.12900
C1135       C  0.68527613  0.61780870  0.23781492     0.19000
C1136       C  0.67382016  0.64084355  0.23810278    -0.19100
C1137       C  0.68738988  0.66254542  0.24026864    -0.11400
C1138       C  0.71293138  0.66177905  0.24220198     0.21300
C1139       C  0.72440596  0.63884553  0.24145360    -0.20700
C1140       C  0.71088644  0.61718975  0.23919097    -0.11500
C1141       C  0.72830065  0.68404103  0.24632919    -0.15700
C1142       C  0.72147644  0.70724209  0.24153214    -0.29600
C1143       C  0.66971032  0.59519020  0.23698438    -0.03800
C1144       C  0.67802700  0.57195595  0.23866301    -0.40400
H1145       H  0.65415621  0.64206614  0.23713900     0.12400
H1146       H  0.67770705  0.67972226  0.24117593     0.12000
H1147       H  0.74403959  0.63763417  0.24285079     0.11500
H1148       H  0.72077675  0.60015496  0.23883601     0.11700
H1149       H  0.74664058  0.68116010  0.25324022     0.14500
H1150       H  0.70358950  0.71107329  0.23413186     0.13200
H1151       H  0.65012234  0.59792999  0.23620072     0.10900
H1152       H  0.69733439  0.56830257  0.24017255     0.12900
C1153       C  0.21343773  0.04991189  0.66078808     0.19000
C1154       C  0.22306831  0.03733063  0.64076134    -0.19100
C1155       C  0.23017478  0.05014141  0.61996549    -0.11400
C1156       C  0.22773863  0.07576408  0.61910524     0.21300
C1157       C  0.22054098  0.08837429  0.64017299    -0.20700
C1158       C  0.21347095  0.07558081  0.66089261    -0.11500
C1159       C  0.23157730  0.09011166  0.59663247    -0.15700
C1160       C  0.23251538  0.08041294  0.57414627    -0.29600
C1161       C  0.20008224  0.03613304  0.67952804    -0.03800
C1162       C  0.17816827  0.04405116  0.68673394    -0.40400
H1163       H  0.22352244  0.01751449  0.64056143     0.12400
H1164       H  0.23678991  0.03979078  0.60453691     0.12000
H1165       H  0.21918127  0.10812699  0.64020895     0.11500
H1166       H  0.20677792  0.08568921  0.67651117     0.11700
H1167       H  0.23298121  0.10988142  0.59860441     0.14500
H1168       H  0.23175659  0.06084558  0.57104566     0.13200
H1169       H  0.20616803  0.01784809  0.68432158     0.10900
H1170       H  0.17118606  0.06139749  0.68007307     0.12900
C1171       C  0.55802211  0.39910154  0.20182817     0.19000
C1172       C  0.55774101  0.39081270  0.17767680    -0.19100
C1173       C  0.54662241  0.36876240  0.17174737    -0.11400
C1174       C  0.53587076  0.35432922  0.18998141     0.21300
C1175       C  0.53472831  0.36320218  0.21391430    -0.20700
C1176       C  0.54595739  0.38540795  0.21991760    -0.11500
C1177       C  0.52601853  0.33002927  0.18369946    -0.15700
C1178       C  0.53814653  0.31577762  0.16797922    -0.29600
C1179       C  0.57383294  0.42012247  0.20773616    -0.03800
C1180       C  0.57181470  0.43363741  0.22805249    -0.40400
H1181       H  0.56681266  0.40108686  0.16344881     0.12400
H1182       H  0.54686269  0.36273613  0.15291505     0.12000
H1183       H  0.52618571  0.35244968  0.22809207     0.11500
H1184       H  0.54622131  0.39106650  0.23883539     0.11700
H1185       H  0.50780968  0.32517808  0.18971774     0.14500
H1186       H  0.55626524  0.32113268  0.16208162     0.13200
H1187       H  0.58874804  0.42380782  0.19522894     0.10900
H1188       H  0.55634370  0.43152825  0.24015500     0.12900
C1189       C  0.60549942  0.21137555  0.05270817     0.19000
C1190       C  0.62977704  0.21787708  0.05721470    -0.19100
C1191       C  0.64851324  0.20746023  0.04365592    -0.11400
C1192       C  0.64320782  0.19002966  0.02556216     0.21300
C1193       C  0.61882523  0.18433169  0.02030732    -0.20700
C1194       C  0.60002394  0.19506341  0.03366007    -0.11500
C1195       C  0.66252125  0.17461326  0.01504017    -0.15700
C1196       C  0.68596834  0.18141937  0.01336082    -0.29600
C1197       C  0.58686635  0.21949591  0.07017574    -0.03800
C1198       C  0.56343524  0.22326584  0.06440673    -0.40400
H1199       H  0.63432060  0.23029317  0.07198253     0.12400
H1200       H  0.66710376  0.21179176  0.04859988     0.12000
H1201       H  0.61439108  0.17067157  0.00664016     0.11500
H1202       H  0.58146349  0.18938390  0.03013755     0.11700
H1203       H  0.65740477  0.15612119  0.00970364     0.14500
H1204       H  0.69161096  0.20021091  0.01638841     0.13200
H1205       H  0.59296771  0.22318270  0.08872456     0.10900
H1206       H  0.55713629  0.22209385  0.04565947     0.12900
C1207       C  0.48631561  0.37642403  0.07985125     0.19000
C1208       C  0.48297512  0.37930454  0.05452100    -0.19100
C1209       C  0.48250704  0.40275178  0.04400461    -0.11400
C1210       C  0.48546341  0.42390690  0.05854801     0.21300
C1211       C  0.48842437  0.42089904  0.08379154    -0.20700
C1212       C  0.48887167  0.39758202  0.09424975    -0.11500
C1213       C  0.48546803  0.44938614  0.04851170    -0.15700
C1214       C  0.48920421  0.45492821  0.02486093    -0.29600
C1215       C  0.48695064  0.35209266  0.09237920    -0.03800
C1216       C  0.48962287  0.33012958  0.08130856    -0.40400
H1217       H  0.48036486  0.36362498  0.04275581     0.12400
H1218       H  0.47945523  0.40408986  0.02456938     0.12000
H1219       H  0.49064670  0.43671344  0.09553542     0.11500
H1220       H  0.49138197  0.39609391  0.11379630     0.11700
H1221       H  0.48324663  0.46436950  0.06136526     0.14500
H1222       H  0.49128738  0.44042459  0.01154278     0.13200
H1223       H  0.48642448  0.35246558  0.11219852     0.10900
H1224       H  0.49140573  0.32893422  0.06165617     0.12900
C1225       C  0.66857322  0.25265091  0.20140579     0.19000
C1226       C  0.66243318  0.26412689  0.17939957    -0.19100
C1227       C  0.63842347  0.26397934  0.17073813    -0.11400
C1228       C  0.61975000  0.25213745  0.18388311     0.21300
C1229       C  0.62596468  0.24059329  0.20591293    -0.20700
C1230       C  0.65000841  0.24081848  0.21460393    -0.11500
C1231       C  0.59413628  0.24989326  0.17455814    -0.15700
C1232       C  0.58546390  0.26223493  0.15514698    -0.29600
C1233       C  0.69464287  0.25223205  0.20923726    -0.03800
C1234       C  0.70176201  0.24920731  0.23255837    -0.40400
H1235       H  0.67637309  0.27310380  0.16868253     0.12400
H1236       H  0.63501686  0.27261092  0.15340122     0.12000
H1237       H  0.61220031  0.23098514  0.21630113     0.11500
H1238       H  0.65404305  0.23108691  0.23126573     0.11700
H1239       H  0.58226290  0.23670963  0.18339725     0.14500
H1240       H  0.59671751  0.27559785  0.14597380     0.13200
H1241       H  0.70848051  0.25517491  0.19540392     0.10900
H1242       H  0.68813767  0.24877976  0.24686532     0.12900
C1243       C  0.63683803  0.06300537  0.99134688     0.19000
C1244       C  0.63035909  0.04082319  0.00248487    -0.19100
C1245       C  0.60609574  0.03276319  0.00277923    -0.11400
C1246       C  0.58748472  0.04678101  0.99197772     0.21300
C1247       C  0.59386020  0.06908248  0.98105792    -0.20700
C1248       C  0.61816461  0.07708662  0.98062549    -0.11500
C1249       C  0.56123530  0.03939950  0.99319584    -0.15700
C1250       C  0.55393689  0.01595628  0.99549332    -0.29600
C1251       C  0.66274226  0.07167316  0.99313055    -0.03800
C1252       C  0.67223130  0.08963479  0.97923971    -0.40400
H1253       H  0.64412933  0.02978218  0.01133730     0.12400
H1254       H  0.60194545  0.01590700  0.01217002     0.12000
H1255       H  0.57992042  0.08049820  0.97299360     0.11500
H1256       H  0.62195819  0.09469453  0.97257439     0.11700
H1257       H  0.54752910  0.05364309  0.99192657     0.14500
H1258       H  0.56744584  0.00154607  0.99428004     0.13200
H1259       H  0.67414877  0.06358145  0.00716908     0.10900
H1260       H  0.66130519  0.09775884  0.96491399     0.27300
C1261       C  0.51611208  0.12869877  0.06720275     0.19000
C1262       C  0.53383695  0.11038585  0.06989872    -0.19100
C1263       C  0.53094465  0.08743840  0.05873317    -0.11400
C1264       C  0.51002909  0.08223710  0.04473789     0.21300
C1265       C  0.49250178  0.10068510  0.04184727    -0.20700
C1266       C  0.49544753  0.12358291  0.05287228    -0.11500
C1267       C  0.50500732  0.05786062  0.03348774    -0.15700
C1268       C  0.52092453  0.03917437  0.03186912    -0.29600
C1269       C  0.51843057  0.15188097  0.08146176    -0.03800
C1270       C  0.50686184  0.17278694  0.07553618    -0.40400
H1271       H  0.54979973  0.11371109  0.08105355     0.12400
H1272       H  0.54482778  0.07379206  0.06172550     0.12000
H1273       H  0.47613231  0.09723310  0.03132553     0.11500
H1274       H  0.48097569  0.13680591  0.05088813     0.11700
H1275       H  0.48708972  0.05524647  0.02539893     0.14500
H1276       H  0.53944721  0.04108895  0.03840290     0.13200
H1277       H  0.52946858  0.15143651  0.09792570     0.10900
H1278       H  0.49685692  0.17404039  0.05850604     0.12900
C1279       C  0.71459514  0.06319168  0.89229046     0.19000
C1280       C  0.72080445  0.06457892  0.86753662    -0.19100
C1281       C  0.70745731  0.05155363  0.85012025    -0.11400
C1282       C  0.68735544  0.03740121  0.85728642     0.21300
C1283       C  0.68135323  0.03583389  0.88208009    -0.20700
C1284       C  0.69497891  0.04845122  0.89950903    -0.11500
C1285       C  0.67044676  0.02674552  0.83927816    -0.15700
C1286       C  0.67706369  0.01909908  0.81696535    -0.29600
C1287       C  0.72685918  0.07945723  0.90985068    -0.03800
C1288       C  0.73091288  0.07331421  0.93319548    -0.40400
H1289       H  0.73562837  0.07623369  0.86163938     0.12400
H1290       H  0.71204781  0.05365737  0.83105179     0.12000
H1291       H  0.66564762  0.02536730  0.88788651     0.11500
H1292       H  0.68937585  0.04768143  0.91842932     0.11700
H1293       H  0.65145469  0.02527981  0.84467522     0.14500
H1294       H  0.69607833  0.01825858  0.81168393     0.13200
H1295       H  0.73261254  0.09732548  0.90331338     0.10900
H1296       H  0.72736055  0.05488283  0.93964419     0.12900
C1297       C  0.69132774  0.93500715  0.59487420     0.19000
C1298       C  0.66625434  0.93179412  0.59826840    -0.19100
C1299       C  0.65467106  0.94198502  0.61838342    -0.11400
C1300       C  0.66798018  0.95533513  0.63569653     0.21300
C1301       C  0.69292871  0.95960567  0.63179786    -0.20700
C1302       C  0.70455948  0.94942833  0.61153744    -0.11500
C1303       C  0.65492247  0.96430411  0.65741635    -0.15700
C1304       C  0.66568404  0.97036401  0.67862569    -0.29600
C1305       C  0.70313658  0.92049403  0.57556323    -0.03800
C1306       C  0.72573430  0.92423795  0.56697227    -0.40400
H1307       H  0.65568708  0.92073073  0.58566728     0.12400
H1308       H  0.63537449  0.93873825  0.62083686     0.12000
H1309       H  0.70358008  0.97050297  0.64437677     0.11500
H1310       H  0.72397424  0.95206373  0.60962966     0.11700
H1311       H  0.63519196  0.96526002  0.65602617     0.14500
H1312       H  0.68528379  0.96972961  0.68085863     0.13200
H1313       H  0.69271964  0.90502408  0.56859946     0.10900
H1314       H  0.73624634  0.94030829  0.57194932     0.12900
C1315       C  0.68264011  0.88110788  0.74444356     0.19000
C1316       C  0.70616670  0.87536341  0.75270609    -0.19100
C1317       C  0.71440037  0.85109972  0.75318130    -0.11400
C1318       C  0.69926355  0.83175611  0.74533121     0.21300
C1319       C  0.67566033  0.83746475  0.73728321    -0.20700
C1320       C  0.66742289  0.86173393  0.73679757    -0.11500
C1321       C  0.70698978  0.80547616  0.74614104    -0.15700
C1322       C  0.73043291  0.79828268  0.74746782    -0.29600
C1323       C  0.67412512  0.90712531  0.74593603    -0.03800
C1324       C  0.65414765  0.91566386  0.73443712    -0.40400
H1325       H  0.71817271  0.88971672  0.75915441     0.12400
H1326       H  0.73242354  0.84768394  0.76033911     0.12000
H1327       H  0.66341400  0.82302728  0.73149294     0.11500
H1328       H  0.64887940  0.86496685  0.73108583     0.11700
H1329       H  0.69293079  0.79154461  0.74484209     0.14500
H1330       H  0.74473947  0.81190232  0.74662967     0.13200
H1331       H  0.68425202  0.91950100  0.75770335     0.10900
H1332       H  0.64398922  0.90383593  0.72224365     0.12900
C1333       C  0.54818784  0.99090308  0.91959487     0.19000
C1334       C  0.54451047  0.00743859  0.90036951    -0.19100
C1335       C  0.55605232  0.00428348  0.87783589    -0.11400
C1336       C  0.57178369  0.98440338  0.87378413     0.21300
C1337       C  0.57554993  0.96780428  0.89301873    -0.20700
C1338       C  0.56379745  0.97087602  0.91562126    -0.11500
C1339       C  0.58589144  0.98173896  0.85052007    -0.15700
C1340       C  0.57883185  0.99169856  0.82909205    -0.29600
C1341       C  0.53619634  0.99622422  0.94352624    -0.03800
C1342       C  0.53337679  0.98029637  0.96210095    -0.40400
H1343       H  0.53283083  0.02317573  0.90288362     0.12400
H1344       H  0.55319870  0.01802046  0.86398037     0.12000
H1345       H  0.58783544  0.95252036  0.89062342     0.11500
H1346       H  0.56752907  0.95793197  0.93002133     0.11700
H1347       H  0.60296675  0.97176939  0.85125379     0.14500
H1348       H  0.56134123  0.00077414  0.82782176     0.13200
H1349       H  0.52835360  0.01433717  0.94574540     0.10900
H1350       H  0.53948020  0.96154007  0.96034075     0.12900
C1351       C  0.55826384  0.59270803  0.29512861     0.19000
C1352       C  0.54865067  0.61198582  0.28142206    -0.19100
C1353       C  0.54102963  0.63340433  0.29299548    -0.11400
C1354       C  0.54268028  0.63555912  0.31855667     0.21300
C1355       C  0.55124665  0.61568659  0.33219435    -0.20700
C1356       C  0.55891137  0.59442960  0.32064442    -0.11500
C1357       C  0.53604059  0.65792772  0.33210877    -0.15700
C1358       C  0.52647247  0.67820766  0.32224901    -0.29600
C1359       C  0.56949565  0.57187324  0.28248814    -0.03800
C1360       C  0.59078647  0.56293463  0.29033416    -0.40400
H1361       H  0.54803725  0.61087382  0.26169966     0.12400
H1362       H  0.53443915  0.64815367  0.28173725     0.12000
H1363       H  0.55239936  0.61672165  0.35191993     0.11500
H1364       H  0.56576651  0.57952953  0.33162001     0.11700
H1365       H  0.53863823  0.65733744  0.35178808     0.14500
H1366       H  0.52258290  0.67961108  0.30292089     0.13200
H1367       H  0.56205429  0.56604285  0.26502243     0.10900
H1368       H  0.59945960  0.57051813  0.30651268     0.12900
C1369       C  0.64629401  0.81381382  0.45474670     0.19000
C1370       C  0.63515328  0.79109319  0.45832837    -0.19100
C1371       C  0.61633245  0.78355762  0.44290919    -0.11400
C1372       C  0.60837974  0.79886652  0.42389589     0.21300
C1373       C  0.61934857  0.82157674  0.42046321    -0.20700
C1374       C  0.63779479  0.82923330  0.43600601    -0.11500
C1375       C  0.58888945  0.79155335  0.40710448    -0.15700
C1376       C  0.56987740  0.77842138  0.41466407    -0.29600
C1377       C  0.66627333  0.82167035  0.47098769    -0.03800
C1378       C  0.68310097  0.83727673  0.46290333    -0.40400
H1379       H  0.64124805  0.77909293  0.47278260     0.12400
H1380       H  0.60835771  0.76565671  0.44558697     0.12000
H1381       H  0.61324932  0.83363956  0.40605143     0.11500
H1382       H  0.64500851  0.84745857  0.43345307     0.11700
H1383       H  0.58990089  0.79770388  0.38829525     0.14500
H1384       H  0.56821338  0.77318963  0.43368608     0.13200
H1385       H  0.66642523  0.81571285  0.48989069     0.10900
H1386       H  0.68321010  0.84297856  0.44396208     0.12900
C1387       C  0.48998757  0.63023529  0.42706081     0.19000
C1388       C  0.47548119  0.60949897  0.42261443    -0.19100
C1389       C  0.47902893  0.58778270  0.43572665    -0.11400
C1390       C  0.49745921  0.58613745  0.45351349     0.21300
C1391       C  0.51202856  0.60682932  0.45795365    -0.20700
C1392       C  0.50830030  0.62864439  0.44504151    -0.11500
C1393       C  0.50292902  0.56282896  0.46662482    -0.15700
C1394       C  0.48630925  0.54513209  0.47080573    -0.29600
C1395       C  0.48693811  0.65229420  0.41117847    -0.03800
C1396       C  0.49429325  0.67498377  0.41753910    -0.40400
H1397       H  0.46152057  0.60999023  0.40864692     0.12400
H1398       H  0.46784400  0.57209330  0.43126821     0.12000
H1399       H  0.52656416  0.60603457  0.47131130     0.11500
H1400       H  0.52041781  0.64384092  0.44859279     0.11700
H1401       H  0.52121149  0.56042572  0.47385653     0.14500
H1402       H  0.46743505  0.54802806  0.46570018     0.13200
H1403       H  0.47881469  0.64956755  0.39328642     0.10900
H1404       H  0.50162686  0.67821987  0.43565628     0.12900
C1405       C  0.66699455  0.73704463  0.28864614     0.19000
C1406       C  0.64456116  0.73752923  0.27624211    -0.19100
C1407       C  0.62249206  0.73512157  0.28882342    -0.11400
C1408       C  0.62225627  0.73227418  0.31435445     0.21300
C1409       C  0.64472107  0.73102651  0.32664158    -0.20700
C1410       C  0.66678829  0.73343358  0.31405948    -0.11500
C1411       C  0.59936068  0.73147114  0.32915597    -0.15700
C1412       C  0.57694901  0.73713774  0.32072113    -0.29600
C1413       C  0.68979469  0.74101674  0.27428512    -0.03800
C1414       C  0.71274293  0.73911338  0.28299185    -0.40400
H1415       H  0.64406366  0.74003290  0.25664712     0.12400
H1416       H  0.60583185  0.73566799  0.27835393     0.12000
H1417       H  0.64522594  0.72874760  0.34625672     0.11500
H1418       H  0.68344651  0.73294201  0.32453964     0.11700
H1419       H  0.60138142  0.72780999  0.34853436     0.14500
H1420       H  0.57419512  0.74175636  0.30171728     0.13200
H1421       H  0.68757829  0.74601349  0.25522655     0.10900
H1422       H  0.71616542  0.73486743  0.30196708     0.12900
C1423       C  0.58850004  0.96137084  0.50707299     0.19000
C1424       C  0.61074990  0.97146008  0.49918225    -0.19100
C1425       C  0.63286380  0.95891632  0.50224067    -0.11400
C1426       C  0.63342120  0.93578918  0.51345104     0.21300
C1427       C  0.61119026  0.92579608  0.52150851    -0.20700
C1428       C  0.58908121  0.93833890  0.51845466    -0.11500
C1429       C  0.65615942  0.92067651  0.51586545    -0.15700
C1430       C  0.67915513  0.92804118  0.51058636    -0.29600
C1431       C  0.56552941  0.97582306  0.50331410    -0.03800
C1432       C  0.54256448  0.96827608  0.50838531    -0.40400
H1433       H  0.61104078  0.98916220  0.49039167     0.12400
H1434       H  0.64928432  0.96733196  0.49538914     0.12000
H1435       H  0.61086837  0.90800178  0.53012837     0.11500
H1436       H  0.57263278  0.92982676  0.52510087     0.11700
H1437       H  0.65354543  0.90179858  0.52145838     0.14500
H1438       H  0.68274189  0.94673765  0.50513053     0.13200
H1439       H  0.56762501  0.99405204  0.49573612     0.10900
H1440       H  0.53909366  0.94982882  0.51462069     0.12900
C1441       C  0.41552260  0.04442721  0.48646364     0.19000
C1442       C  0.39218909  0.03381341  0.48560732    -0.19100
C1443       C  0.37117589  0.04817926  0.48321437    -0.11400
C1444       C  0.37271770  0.07387248  0.48200038     0.21300
C1445       C  0.39610260  0.08450679  0.48201750    -0.20700
C1446       C  0.41722376  0.07006441  0.48431220    -0.11500
C1447       C  0.35049868  0.09003116  0.48131614    -0.15700
C1448       C  0.32828935  0.08271062  0.48910810    -0.29600
C1449       C  0.43707298  0.02795086  0.49060322    -0.03800
C1450       C  0.46080706  0.03416336  0.48793119    -0.40400
H1451       H  0.39014358  0.01416236  0.48693092     0.12400
H1452       H  0.35380756  0.03890861  0.48232639     0.12000
H1453       H  0.39803872  0.10418299  0.48091772     0.11500
H1454       H  0.43467471  0.07918295  0.48503548     0.11700
H1455       H  0.35287558  0.10898177  0.47594820     0.14500
H1456       H  0.32597822  0.06428714  0.49590504     0.13200
H1457       H  0.43311565  0.00937065  0.49637426     0.10900
H1458       H  0.46574696  0.05265087  0.48288672     0.12900
C1459       C  0.57156854  0.01975764  0.62767152     0.19000
C1460       C  0.58240009  0.01362465  0.60523166    -0.19100
C1461       C  0.56864655  0.01248257  0.58360487    -0.11400
C1462       C  0.54352612  0.01776282  0.58371649     0.21300
C1463       C  0.53285415  0.02453850  0.60607311    -0.20700
C1464       C  0.54660797  0.02561005  0.62771074    -0.11500
C1465       C  0.52748017  0.01524851  0.56154373    -0.15700
C1466       C  0.53540472  0.01184392  0.53839851    -0.29600
C1467       C  0.58691500  0.01945694  0.65041657    -0.03800
C1468       C  0.57801747  0.01700979  0.67329425    -0.40400
H1469       H  0.60157457  0.00907416  0.60450192     0.12400
H1470       H  0.57780148  0.00685245  0.56710756     0.12000
H1471       H  0.51363501  0.02884706  0.60687251     0.11500
H1472       H  0.53756363  0.03107412  0.64434782     0.11700
H1473       H  0.50793601  0.01559779  0.56454131     0.14500
H1474       H  0.55471265  0.01135558  0.53475274     0.13200
H1475       H  0.60655536  0.01919174  0.64802967     0.10900
H1476       H  0.55853241  0.01557363  0.67609772     0.12900
C1477       C  0.51033210  0.86427294  0.43817454     0.19000
C1478       C  0.49254328  0.87419021  0.45370922    -0.19100
C1479       C  0.49482511  0.89798816  0.46319599    -0.11400
C1480       C  0.51511579  0.91273500  0.45742097     0.21300
C1481       C  0.53327348  0.90253035  0.44248167    -0.20700
C1482       C  0.53099092  0.87871701  0.43300175    -0.11500
C1483       C  0.51841464  0.93838831  0.46700514    -0.15700
C1484       C  0.50039022  0.95183795  0.47711007    -0.29600
C1485       C  0.50647430  0.83907142  0.42767708    -0.03800
C1486       C  0.51754794  0.83098280  0.40722857    -0.40400
H1487       H  0.47657861  0.86353238  0.45836814     0.12400
H1488       H  0.48069069  0.90447877  0.47524474     0.12000
H1489       H  0.54934398  0.91309352  0.43800724     0.11500
H1490       H  0.54562542  0.87173269  0.42183771     0.11700
H1491       H  0.53617653  0.94682113  0.46476377     0.14500
H1492       H  0.48207200  0.94445301  0.47726448     0.13200
H1493       H  0.49256046  0.82759213  0.43587921     0.10900
H1494       H  0.53023068  0.84291792  0.39786706     0.12900
C1495       C  0.46528632  0.86518866  0.31955508     0.19000
C1496       C  0.46351314  0.86861275  0.29423136    -0.19100
C1497       C  0.45200336  0.88942013  0.28504928    -0.11400
C1498       C  0.44214982  0.90688608  0.30112642     0.21300
C1499       C  0.44506418  0.90395249  0.32626710    -0.20700
C1500       C  0.45669651  0.88340618  0.33538530    -0.11500
C1501       C  0.42594451  0.92647414  0.29271489    -0.15700
C1502       C  0.42678509  0.93610178  0.27034325    -0.29600
C1503       C  0.47475009  0.84270903  0.33078207    -0.03800
C1504       C  0.47740131  0.82092156  0.31962737    -0.40400
H1505       H  0.47037602  0.85514102  0.28154303     0.12400
H1506       H  0.44968636  0.89105481  0.26551253     0.12000
H1507       H  0.43756494  0.91719500  0.33892595     0.11500
H1508       H  0.45801918  0.88124985  0.35498934     0.11700
H1509       H  0.41220197  0.93287375  0.30547148     0.14500
H1510       H  0.44139295  0.93166399  0.25780352     0.13200
H1511       H  0.47823778  0.84382749  0.35030889     0.10900
H1512       H  0.47507779  0.81855897  0.30012327     0.12900
C1513       C  0.44347558  0.15799497  0.18781310     0.19000
C1514       C  0.45831174  0.13915779  0.19688807    -0.19100
C1515       C  0.44782521  0.11820513  0.20685193    -0.11400
C1516       C  0.42236432  0.11587312  0.20779727     0.21300
C1517       C  0.40773173  0.13528138  0.19980015    -0.20700
C1518       C  0.41818439  0.15607218  0.18974385    -0.11500
C1519       C  0.40988352  0.09368215  0.21645766    -0.15700
C1520       C  0.42059821  0.07232494  0.22216739    -0.29600
C1521       C  0.45348435  0.17796963  0.17304944    -0.03800
C1522       C  0.47631255  0.18628181  0.17527131    -0.40400
H1523       H  0.47791095  0.13994189  0.19515235     0.12400
H1524       H  0.45975060  0.10386667  0.21318819     0.12000
H1525       H  0.38805604  0.13404374  0.20057270     0.11500
H1526       H  0.40647172  0.17035922  0.18273103     0.11700
H1527       H  0.39021052  0.09515228  0.21813867     0.14500
H1528       H  0.44014493  0.06984091  0.22145715     0.13200
H1529       H  0.44181036  0.18533202  0.15879581     0.10900
H1530       H  0.48783020  0.18081114  0.19041518     0.12900
C1531       C  0.31721448  0.06372710  0.41224180     0.19000
C1532       C  0.34140060  0.06993161  0.40696878    -0.19100
C1533       C  0.35306278  0.05963155  0.38689607    -0.11400
C1534       C  0.34057896  0.04324399  0.37166742     0.21300
C1535       C  0.31704416  0.03553387  0.37807327    -0.20700
C1536       C  0.30537355  0.04582686  0.39811372    -0.11500
C1537       C  0.35236474  0.03525167  0.34890835    -0.15700
C1538       C  0.33987570  0.02771836  0.32915513    -0.29600
C1539       C  0.30395013  0.07879160  0.43004554    -0.03800
C1540       C  0.28259162  0.07239754  0.44002981    -0.40400
H1541       H  0.35089088  0.08359570  0.41773105     0.12400
H1542       H  0.37142379  0.06542360  0.38255032     0.12000
H1543       H  0.30730950  0.02207934  0.36736258     0.11500
H1544       H  0.28667557  0.04068641  0.40148639     0.11700
H1545       H  0.37210504  0.03659692  0.34805714     0.14500
H1546       H  0.32017294  0.02645956  0.32921854     0.13200
H1547       H  0.31156884  0.09671038  0.43411154     0.10900
H1548       H  0.27524706  0.05409455  0.43809005     0.12900
C1549       C  0.45142618  0.00909639  0.08474005     0.19000
C1550       C  0.42668134  0.01358157  0.08954916    -0.19100
C1551       C  0.41764995  0.01352418  0.11351862    -0.11400
C1552       C  0.43317567  0.00889600  0.13348684     0.21300
C1553       C  0.45784169  0.00420623  0.12867967    -0.20700
C1554       C  0.46688378  0.00430252  0.10474824    -0.11500
C1555       C  0.42413210  0.00705806  0.15924932    -0.15700
C1556       C  0.40316784  0.01713682  0.16721005    -0.29600
C1557       C  0.45991427  0.00798505  0.05868978    -0.03800
C1558       C  0.48357711  0.00733240  0.05191803    -0.40400
H1559       H  0.41415663  0.01683385  0.07463482     0.12400
H1560       H  0.39835322  0.01638662  0.11615194     0.12000
H1561       H  0.47019644  0.00014903  0.14354883     0.11500
H1562       H  0.48586897  0.99991290  0.10218758     0.11700
H1563       H  0.43511839  0.99674701  0.17210301     0.14500
H1564       H  0.39235754  0.02818919  0.15489800     0.13200
H1565       H  0.44604185  0.00754832  0.04457468     0.10900
H1566       H  0.49749255  0.01023008  0.06564659     0.12900
C1567       C  0.46432420  0.98309234  0.41281749     0.19000
C1568       C  0.47590373  0.98793154  0.39046390    -0.19100
C1569       C  0.46306845  0.98665641  0.36829256    -0.11400
C1570       C  0.43823230  0.98019987  0.36790317     0.21300
C1571       C  0.42698775  0.97437056  0.39022231    -0.20700
C1572       C  0.43977054  0.97580789  0.41235720    -0.11500
C1573       C  0.42289232  0.98012597  0.34520188    -0.15700
C1574       C  0.42985435  0.98808858  0.32287237    -0.29600
C1575       C  0.47852209  0.98559970  0.43603978    -0.03800
C1576       C  0.46852724  0.98998083  0.45816891    -0.40400
H1577       H  0.49491765  0.99322945  0.39018097     0.12400
H1578       H  0.47271150  0.99095380  0.35170058     0.12000
H1579       H  0.40799185  0.96903661  0.39062231     0.11500
H1580       H  0.43034348  0.97110133  0.42901045     0.11700
H1581       H  0.40404066  0.97454907  0.34748324     0.14500
H1582       H  0.44832959  0.99420381  0.31968330     0.13200
H1583       H  0.49826867  0.98534919  0.43466004     0.10900
H1584       H  0.44900799  0.99220398  0.45960800     0.12900
C1585       C  0.64444303  0.31453576  0.54212294     0.19000
C1586       C  0.63603836  0.31703445  0.56603707    -0.19100
C1587       C  0.61482722  0.30539048  0.57332380    -0.11400
C1588       C  0.60120070  0.29135670  0.55661586     0.21300
C1589       C  0.61000947  0.28806333  0.53286914    -0.20700
C1590       C  0.63145754  0.29973072  0.52554381    -0.11500
C1591       C  0.57853111  0.27913321  0.56438822    -0.15700
C1592       C  0.56474575  0.28889473  0.58200336    -0.29600
C1593       C  0.66534442  0.32966858  0.53481929    -0.03800
C1594       C  0.67965961  0.32494666  0.51561878    -0.40400
H1595       H  0.64585187  0.32822863  0.57912877     0.12400
H1596       H  0.60931044  0.30728811  0.59216410     0.12000
H1597       H  0.59999645  0.27697247  0.51987646     0.11500
H1598       H  0.63726927  0.29782357  0.50679987     0.11700
H1599       H  0.57444154  0.26102139  0.55726383     0.14500
H1600       H  0.56869826  0.30708921  0.58894461     0.13200
H1601       H  0.66884956  0.34593768  0.54575900     0.10900
H1602       H  0.67781371  0.30811279  0.50523848     0.12900
C1603       C  0.57501512  0.10680664  0.69908093     0.19000
C1604       C  0.55691581  0.09893406  0.68273714    -0.19100
C1605       C  0.54409948  0.11601568  0.66902327    -0.11400
C1606       C  0.54887214  0.14096615  0.67209913     0.21300
C1607       C  0.56692060  0.14877817  0.68850498    -0.20700
C1608       C  0.58014437  0.13170365  0.70171185    -0.11500
C1609       C  0.53595055  0.15873163  0.65709390    -0.15700
C1610       C  0.52783147  0.17972941  0.66654740    -0.29600
C1611       C  0.58998561  0.08923673  0.71224182    -0.03800
C1612       C  0.58042697  0.06953453  0.72297340    -0.40400
H1613       H  0.55326039  0.07964190  0.68006724     0.12400
H1614       H  0.53046277  0.10982741  0.65609427     0.12000
H1615       H  0.57124052  0.16800607  0.69056450     0.11500
H1616       H  0.59437715  0.13788360  0.71398265     0.11700
H1617       H  0.53286026  0.15438271  0.63796914     0.14500
H1618       H  0.52880977  0.18325399  0.68603924     0.13200
H1619       H  0.60938893  0.09301986  0.71367346     0.10900
H1620       H  0.56084963  0.06663971  0.72342807     0.12900
C1621       C  0.35655601  0.19202314  0.53394185     0.19000
C1622       C  0.35028900  0.21017548  0.55094815    -0.19100
C1623       C  0.36848125  0.22298379  0.56331580    -0.11400
C1624       C  0.39306794  0.21808858  0.55861597     0.21300
C1625       C  0.39929377  0.20095477  0.54056249    -0.20700
C1626       C  0.38111123  0.18788045  0.52847546    -0.11500
C1627       C  0.41151559  0.22811630  0.57535403    -0.15700
C1628       C  0.43490868  0.23137841  0.56931043    -0.29600
C1629       C  0.33824447  0.17487880  0.52434112    -0.03800
C1630       C  0.31496143  0.18095013  0.52033226    -0.40400
H1631       H  0.33149034  0.21332755  0.55592305     0.12400
H1632       H  0.36337284  0.23592607  0.57739960     0.12000
H1633       H  0.41810685  0.19636284  0.53697155     0.11500
H1634       H  0.38624182  0.17374739  0.51559650     0.11700
H1635       H  0.40570107  0.23232012  0.59386938     0.14500
H1636       H  0.44108551  0.22964303  0.55058413     0.13200
H1637       H  0.34418717  0.15627068  0.52060894     0.10900
H1638       H  0.30889665  0.19979232  0.52165649     0.12900
C1639       C  0.44036649  0.39103600  0.72118629     0.19000
C1640       C  0.43390724  0.36660143  0.72533761    -0.19100
C1641       C  0.44568622  0.34783508  0.71290756    -0.11400
C1642       C  0.46401011  0.35337851  0.69598604     0.21300
C1643       C  0.47136467  0.37770315  0.69281216    -0.20700
C1644       C  0.45971601  0.39646139  0.70539237    -0.11500
C1645       C  0.47323854  0.33489374  0.67889900    -0.15700
C1646       C  0.47356388  0.31086662  0.68352914    -0.29600
C1647       C  0.42413667  0.41022524  0.73047327    -0.03800
C1648       C  0.43057566  0.43371790  0.73319751    -0.40400
H1649       H  0.41885354  0.36211374  0.73727065     0.12400
H1650       H  0.43924399  0.32930006  0.71534173     0.12000
H1651       H  0.48533423  0.38229414  0.67966067     0.11500
H1652       H  0.46476429  0.41514166  0.70137399     0.11700
H1653       H  0.47981701  0.34139787  0.66135827     0.14500
H1654       H  0.46947941  0.30366103  0.70148106     0.13200
H1655       H  0.40549444  0.40483204  0.73454334     0.10900
H1656       H  0.44935064  0.43968752  0.73158559     0.12900
C1657       C  0.50577977  0.41920837  0.54985384     0.19000
C1658       C  0.51301821  0.41368455  0.57377795    -0.19100
C1659       C  0.51255810  0.38956934  0.58237174    -0.11400
C1660       C  0.50476390  0.37021888  0.56716020     0.21300
C1661       C  0.49722897  0.37582122  0.54333495    -0.20700
C1662       C  0.49768185  0.39992648  0.53476059    -0.11500
C1663       C  0.50271364  0.34433194  0.57576537    -0.15700
C1664       C  0.51336739  0.33584504  0.59620209    -0.29600
C1665       C  0.50553096  0.44532324  0.54184093    -0.03800
C1666       C  0.50487621  0.45217509  0.51825664    -0.40400
H1667       H  0.51886946  0.42815418  0.58599331     0.12400
H1668       H  0.51772306  0.38647519  0.60112467     0.12000
H1669       H  0.49067994  0.36148472  0.53133651     0.11500
H1670       H  0.49101366  0.40331628  0.51650779     0.11700
H1671       H  0.49150293  0.33188999  0.56508300     0.14500
H1672       H  0.52500226  0.34767621  0.60699791     0.13200
H1673       H  0.50612069  0.45939057  0.55585180     0.10900
H1674       H  0.50680423  0.43838122  0.50414379     0.12900
C1675       C  0.47910211  0.13194866  0.56539032     0.19000
C1676       C  0.46145368  0.11434781  0.57145974    -0.19100
C1677       C  0.46178460  0.09098135  0.56092927    -0.11400
C1678       C  0.48005619  0.08429447  0.54434199     0.21300
C1679       C  0.49756622  0.10203655  0.53787968    -0.20700
C1680       C  0.49711715  0.12555852  0.54830396    -0.11500
C1681       C  0.47970151  0.05900537  0.53374378    -0.15700
C1682       C  0.49918990  0.04810429  0.52342608    -0.29600
C1683       C  0.47917976  0.15569429  0.57901131    -0.03800
C1684       C  0.49069239  0.17646506  0.57208012    -0.40400
H1685       H  0.44741543  0.11862116  0.58464171     0.12400
H1686       H  0.44789037  0.07791240  0.56610813     0.12000
H1687       H  0.51159211  0.09795839  0.52467632     0.11500
H1688       H  0.51125901  0.13840029  0.54340385     0.11700
H1689       H  0.46286204  0.04866325  0.53514004     0.14500
H1690       H  0.51671865  0.05722894  0.52412932     0.13200
H1691       H  0.46944779  0.15579162  0.59625805     0.10900
H1692       H  0.49976492  0.17746058  0.55455320     0.12900
C1693       C  0.26951108  0.18639097  0.61795379     0.19000
C1694       C  0.27656302  0.17596151  0.64031960    -0.19100
C1695       C  0.27464075  0.18908091  0.66226028    -0.11400
C1696       C  0.26551935  0.21312116  0.66242659     0.21300
C1697       C  0.25936870  0.22388012  0.63999802    -0.20700
C1698       C  0.26128183  0.21078151  0.61806826    -0.11500
C1699       C  0.26227190  0.22778298  0.68527696    -0.15700
C1700       C  0.26177150  0.21839793  0.70804605    -0.29600
C1701       C  0.27024659  0.17078179  0.59541757    -0.03800
C1702       C  0.26083407  0.17708805  0.57350941    -0.40400
H1703       H  0.28326451  0.15735712  0.64090623     0.12400
H1704       H  0.28038235  0.18025549  0.67891692     0.12000
H1705       H  0.25265975  0.24248505  0.63944543     0.11500
H1706       H  0.25609648  0.21996090  0.60145212     0.11700
H1707       H  0.25893973  0.24724602  0.68319265     0.14500
H1708       H  0.26325248  0.19885733  0.71060101     0.13200
H1709       H  0.27750772  0.15243120  0.59744213     0.10900
H1710       H  0.25290991  0.19496936  0.57075417     0.12900
C1711       C  0.21755172  0.15980563  0.74206359     0.19000
C1712       C  0.22651218  0.13831079  0.75275881    -0.19100
C1713       C  0.21332021  0.11640371  0.75142199    -0.11400
C1714       C  0.19080562  0.11546622  0.73909955     0.21300
C1715       C  0.18234024  0.13678039  0.72763952    -0.20700
C1716       C  0.19550692  0.15864935  0.72900825    -0.11500
C1717       C  0.17476329  0.09341286  0.73877816    -0.15700
C1718       C  0.18046070  0.07144567  0.74833437    -0.29600
C1719       C  0.23182385  0.18286670  0.74475334    -0.03800
C1720       C  0.22249159  0.20537376  0.74140835    -0.40400
H1721       H  0.24359386  0.13857864  0.76267615     0.12400
H1722       H  0.22070680  0.10060407  0.76055682     0.12000
H1723       H  0.16521232  0.13663185  0.71781136     0.11500
H1724       H  0.18830832  0.17448371  0.71972650     0.11700
H1725       H  0.15676116  0.09570404  0.73084095     0.14500
H1726       H  0.19836385  0.06794192  0.75583379     0.13200
H1727       H  0.25065430  0.18139529  0.75072892     0.10900
H1728       H  0.20327203  0.20778589  0.73759660     0.12900
C1729       C  0.30342644  0.38740518  0.75529214     0.19000
C1730       C  0.31623586  0.36625977  0.76241924    -0.19100
C1731       C  0.30474709  0.34335947  0.76268408    -0.11400
C1732       C  0.28020539  0.34094664  0.75555595     0.21300
C1733       C  0.26743466  0.36211172  0.74877938    -0.20700
C1734       C  0.27890710  0.38497252  0.74851330    -0.11500
C1735       C  0.26714039  0.31698536  0.75450955    -0.15700
C1736       C  0.27765770  0.29490730  0.75723339    -0.29600
C1737       C  0.31528066  0.41192160  0.75324292    -0.03800
C1738       C  0.33615593  0.41791412  0.76469226    -0.40400
H1739       H  0.33531685  0.36705208  0.76718413     0.12400
H1740       H  0.31534547  0.32774686  0.76833802     0.12000
H1741       H  0.24851420  0.36093074  0.74327728     0.11500
H1742       H  0.26859555  0.40082446  0.74281056     0.11700
H1743       H  0.24780729  0.31742422  0.75025056     0.14500
H1744       H  0.29714654  0.29325813  0.75969267     0.13200
H1745       H  0.30666515  0.42539378  0.74155206     0.10900
H1746       H  0.34468522  0.40505614  0.77702961     0.12900
C1747       C  0.37723389  0.25808689  0.67671127     0.19000
C1748       C  0.35567403  0.27016339  0.67001246    -0.19100
C1749       C  0.33417664  0.26689812  0.68339724    -0.11400
C1750       C  0.33375506  0.25126064  0.70374410     0.21300
C1751       C  0.35517358  0.23896912  0.71024743    -0.20700
C1752       C  0.37663810  0.24230440  0.69698997    -0.11500
C1753       C  0.31117162  0.24617177  0.71781798    -0.15700
C1754       C  0.29222084  0.26165904  0.71937416    -0.29600
C1755       C  0.39945537  0.26108711  0.66129564    -0.03800
C1756       C  0.42204661  0.25536693  0.66899881    -0.40400
H1757       H  0.35541195  0.28203786  0.65422809     0.12400
H1758       H  0.31783791  0.27610597  0.67735802     0.12000
H1759       H  0.35526137  0.22651835  0.72559250     0.11500
H1760       H  0.39240362  0.23183176  0.70236766     0.11700
H1761       H  0.31039978  0.22923795  0.72813690     0.14500
H1762       H  0.29329024  0.27964029  0.71112925     0.13200
H1763       H  0.39703345  0.26768944  0.64277212     0.10900
H1764       H  0.42502470  0.24934745  0.68757331     0.12900
C1765       C  0.31022056  0.46545656  0.85984937     0.19000
C1766       C  0.32063288  0.46464952  0.88323805    -0.19100
C1767       C  0.30705235  0.45692622  0.90320752    -0.11400
C1768       C  0.28268262  0.44986272  0.90019860     0.21300
C1769       C  0.27163386  0.45227035  0.87725169    -0.20700
C1770       C  0.28533040  0.45983128  0.85709478    -0.11500
C1771       C  0.26959692  0.43735362  0.92010751    -0.15700
C1772       C  0.28060481  0.41925334  0.93234648    -0.29600
C1773       C  0.32663090  0.47086670  0.83909646    -0.03800
C1774       C  0.31962161  0.47546368  0.81603200    -0.40400
H1775       H  0.33965066  0.46921131  0.88596896     0.12400
H1776       H  0.31582868  0.45561100  0.92086745     0.12000
H1777       H  0.25282045  0.44688766  0.87463901     0.11500
H1778       H  0.27658509  0.46019311  0.83942913     0.11700
H1779       H  0.25021775  0.44052966  0.92243373     0.14500
H1780       H  0.29925101  0.41436127  0.92788552     0.13200
H1781       H  0.34597372  0.47173429  0.84334386     0.10900
H1782       H  0.30054558  0.47647753  0.81102928     0.12900
C1783       C  0.17282001  0.45233021  0.14444390     0.19000
C1784       C  0.16711114  0.45732747  0.12007109    -0.19100
C1785       C  0.17991663  0.44595338  0.10139816    -0.11400
C1786       C  0.19829375  0.42909469  0.10701529     0.21300
C1787       C  0.20402129  0.42409605  0.13139993    -0.20700
C1788       C  0.19149245  0.43581787  0.15009299    -0.11500
C1789       C  0.20986859  0.41456435  0.08787691    -0.15700
C1790       C  0.21406716  0.42312636  0.06541919    -0.29600
C1791       C  0.15772908  0.46321764  0.16350493    -0.03800
C1792       C  0.16653797  0.47001273  0.18529814    -0.40400
H1793       H  0.15249074  0.46980013  0.11551040     0.12400
H1794       H  0.17469256  0.44951243  0.08269435     0.12000
H1795       H  0.21788980  0.41078146  0.13594275     0.11500
H1796       H  0.19570990  0.43123791  0.16883010     0.11700
H1797       H  0.21528831  0.39600653  0.09252586     0.14500
H1798       H  0.21111279  0.44220562  0.06084067     0.13200
H1799       H  0.13881370  0.46689744  0.15888815     0.10900
H1800       H  0.18580216  0.46851119  0.18952621     0.12900
C1801       C  0.35568869  0.32593547  0.05132833     0.19000
C1802       C  0.37999321  0.33126297  0.04571158    -0.19100
C1803       C  0.39874615  0.31893542  0.05756334    -0.11400
C1804       C  0.39323078  0.30162654  0.07556678     0.21300
C1805       C  0.36897503  0.29642816  0.08130098    -0.20700
C1806       C  0.35024564  0.30830032  0.06905190    -0.11500
C1807       C  0.41244453  0.29011483  0.08993759    -0.15700
C1808       C  0.43290028  0.28157362  0.07987377    -0.29600
C1809       C  0.33632767  0.34026214  0.03982932    -0.03800
C1810       C  0.31472769  0.33055542  0.03383406    -0.40400
H1811       H  0.38441808  0.34508152  0.03228738     0.12400
H1812       H  0.41744820  0.32352610  0.05334983     0.12000
H1813       H  0.36456866  0.28331278  0.09540371     0.11500
H1814       H  0.33158919  0.30438059  0.07409631     0.11700
H1815       H  0.40904466  0.28745567  0.10930548     0.14500
H1816       H  0.43558259  0.28197568  0.06023369     0.13200
H1817       H  0.34026671  0.35923974  0.03541017     0.10900
H1818       H  0.31125724  0.31110866  0.03585352     0.12900
C1819       C  0.08130414  0.45685010  0.01586195     0.19000
C1820       C  0.10408060  0.46808325  0.01232322    -0.19100
C1821       C  0.12563669  0.45429842  0.01175153    -0.11400
C1822       C  0.12504715  0.42871042  0.01479158     0.21300
C1823       C  0.10231315  0.41759156  0.01896448    -0.20700
C1824       C  0.08076723  0.43137143  0.01950416    -0.11500
C1825       C  0.14736635  0.41283450  0.01381178    -0.15700
C1826       C  0.16945248  0.42012124  0.00569072    -0.29600
C1827       C  0.05878558  0.47238921  0.01556403    -0.03800
C1828       C  0.03599111  0.46372381  0.01196108    -0.40400
H1829       H  0.10520948  0.48767398  0.00972835     0.12400
H1830       H  0.14259789  0.46393306  0.00906034     0.12000
H1831       H  0.10115526  0.39801345  0.02166751     0.11500
H1832       H  0.06384624  0.42191231  0.02298393     0.11700
H1833       H  0.14516608  0.39379746  0.01898983     0.14500
H1834       H  0.17214400  0.43870999  0.99949013     0.13200
H1835       H  0.06122308  0.49208901  0.01656809     0.10900
H1836       H  0.03318572  0.44433714  0.00894723     0.12900
C1837       C  0.40882364  0.46165023  0.98939361     0.19000
C1838       C  0.38566582  0.47234546  0.99164394    -0.19100
C1839       C  0.36439808  0.45818734  0.99013222    -0.11400
C1840       C  0.36567166  0.43270699  0.98641867     0.21300
C1841       C  0.38883317  0.42211128  0.98365873    -0.20700
C1842       C  0.41010514  0.43628429  0.98513663    -0.11500
C1843       C  0.34373985  0.41626738  0.98614004    -0.15700
C1844       C  0.32067822  0.42349445  0.99074098    -0.29600
C1845       C  0.43083473  0.47753852  0.99281135    -0.03800
C1846       C  0.45414970  0.47058480  0.98915466    -0.40400
H1847       H  0.38398791  0.49180740  0.99488807     0.12400
H1848       H  0.34717890  0.46746708  0.99215223     0.12000
H1849       H  0.39054621  0.40259292  0.98079111     0.11500
H1850       H  0.42737975  0.42703155  0.98348594     0.11700
H1851       H  0.34697965  0.39687480  0.98321733     0.14500
H1852       H  0.31663471  0.44252893  0.99435949     0.13200
H1853       H  0.42772431  0.49609522  0.99924726     0.10900
H1854       H  0.45843633  0.45219308  0.98325570     0.12900
C1855       C  0.23379168  0.31293904  0.88142573     0.19000
C1856       C  0.22432376  0.32215647  0.85945302    -0.19100
C1857       C  0.22614450  0.30886880  0.83766058    -0.11400
C1858       C  0.23768472  0.28592447  0.83721611     0.21300
C1859       C  0.24658644  0.27637370  0.85926125    -0.20700
C1860       C  0.24480276  0.28968147  0.88107821    -0.11500
C1861       C  0.24058864  0.27128131  0.81436276    -0.15700
C1862       C  0.23955645  0.28076329  0.79168093    -0.29600
C1863       C  0.23279119  0.32887223  0.90364270    -0.03800
C1864       C  0.24056667  0.32245550  0.92611062    -0.40400
H1865       H  0.21561798  0.33990731  0.85906648     0.12400
H1866       H  0.21831327  0.31664269  0.82133360     0.12000
H1867       H  0.25538331  0.25867069  0.85954151     0.11500
H1868       H  0.25250060  0.28169440  0.89734891     0.11700
H1869       H  0.24495328  0.25200064  0.81625551     0.14500
H1870       H  0.23701960  0.30021540  0.78930664     0.13200
H1871       H  0.22618866  0.34740271  0.90104782     0.10900
H1872       H  0.24714675  0.30417228  0.92969038     0.12900
C1873       C  0.20604150  0.34042059  0.23957678     0.19000
C1874       C  0.18849854  0.34818527  0.22260454    -0.19100
C1875       C  0.17774542  0.37138162  0.22441961    -0.11400
C1876       C  0.18427815  0.38758808  0.24337641     0.21300
C1877       C  0.20229810  0.38007891  0.25998063    -0.20700
C1878       C  0.21305453  0.35688577  0.25816068    -0.11500
C1879       C  0.17301021  0.41237889  0.24649052    -0.15700
C1880       C  0.15176381  0.41924093  0.23614198    -0.29600
C1881       C  0.21703216  0.31545989  0.23673286    -0.03800
C1882       C  0.22918643  0.30377764  0.25465817    -0.40400
H1883       H  0.18300876  0.33619208  0.20783591     0.12400
H1884       H  0.16457418  0.37650100  0.21069430     0.12000
H1885       H  0.20803378  0.39219340  0.27456524     0.11500
H1886       H  0.22708371  0.35222288  0.27118128     0.11700
H1887       H  0.18189741  0.42502710  0.25897519     0.14500
H1888       H  0.14183184  0.40658911  0.22458904     0.13200
H1889       H  0.21425656  0.30600509  0.21951321     0.10900
H1890       H  0.23000384  0.31201501  0.27264703     0.12900
C1891       C  0.23951405  0.19073625  0.38562809     0.19000
C1892       C  0.25840288  0.20502093  0.37595467    -0.19100
C1893       C  0.25711210  0.21429770  0.35220138    -0.11400
C1894       C  0.23678719  0.20945992  0.33715982     0.21300
C1895       C  0.21751705  0.19574760  0.34708491    -0.20700
C1896       C  0.21881277  0.18646448  0.37095520    -0.11500
C1897       C  0.23463976  0.21901415  0.31154513    -0.15700
C1898       C  0.25335489  0.22906168  0.29908614    -0.29600
C1899       C  0.24250720  0.18068185  0.41089039    -0.03800
C1900       C  0.22977333  0.16159558  0.41977812    -0.40400
H1901       H  0.27445137  0.20892809  0.38681411     0.12400
H1902       H  0.27210350  0.22546522  0.34608704     0.12000
H1903       H  0.20138495  0.19210668  0.33628630     0.11500
H1904       H  0.20346462  0.17617359  0.37778121     0.11700
H1905       H  0.21700789  0.21779128  0.30264072     0.14500
H1906       H  0.27121503  0.22963920  0.30726560     0.13200
H1907       H  0.25737763  0.18790246  0.42186771     0.10900
H1908       H  0.21599533  0.15282939  0.40859181     0.12900
C1909       C  0.38250869  0.23734855  0.18289130     0.19000
C1910       C  0.35932539  0.23694022  0.17184202    -0.19100
C1911       C  0.33789730  0.23844366  0.18578420    -0.11400
C1912       C  0.33894497  0.24035420  0.21140836     0.21300
C1913       C  0.36210910  0.24012778  0.22250426    -0.20700
C1914       C  0.38355247  0.23869834  0.20854639    -0.11500
C1915       C  0.31664305  0.24231804  0.22731050    -0.15700
C1916       C  0.29390670  0.24789257  0.21935400    -0.29600
C1917       C  0.40477545  0.23638000  0.16685508    -0.03800
C1918       C  0.42785928  0.24165113  0.17403605    -0.40400
H1919       H  0.35774050  0.23564645  0.15218521     0.12400
H1920       H  0.32064540  0.23787846  0.17628908     0.12000
H1921       H  0.36367117  0.24124672  0.24217180     0.11500
H1922       H  0.40080495  0.23851413  0.21804966     0.11700
H1923       H  0.31934828  0.24026214  0.24683811     0.14500
H1924       H  0.29127905  0.25163999  0.20021340     0.13200
H1925       H  0.40171429  0.23244387  0.14764772     0.10900
H1926       H  0.43153309  0.24665876  0.19282199     0.12900
C1927       C  0.31189105  0.11999480  0.26453099     0.19000
C1928       C  0.29717338  0.13038266  0.24627034    -0.19100
C1929       C  0.28971194  0.15492706  0.24760226    -0.11400
C1930       C  0.29681843  0.16992625  0.26736961     0.21300
C1931       C  0.31097179  0.15930563  0.28592738    -0.20700
C1932       C  0.31834433  0.13477729  0.28463473    -0.11500
C1933       C  0.28956507  0.19632747  0.26995826    -0.15700
C1934       C  0.27717247  0.20929667  0.25305380    -0.29600
C1935       C  0.32038070  0.09399428  0.26166371    -0.03800
C1936       C  0.33965756  0.08451672  0.27371780    -0.40400
H1937       H  0.29163237  0.11951814  0.23066733     0.12400
H1938       H  0.27838436  0.16180696  0.23305281     0.12000
H1939       H  0.31641335  0.17007917  0.30163878     0.11500
H1940       H  0.32893981  0.12757787  0.29958846     0.11700
H1941       H  0.29531951  0.20557230  0.28648205     0.14500
H1942       H  0.27332360  0.20110266  0.23545385     0.13200
H1943       H  0.31184240  0.08294830  0.24752257     0.10900
H1944       H  0.34971051  0.09583703  0.28648564     0.12900
C1945       C  0.25730686  0.32481047  0.12337316     0.19000
C1946       C  0.25140664  0.33583357  0.14583733    -0.19100
C1947       C  0.25120224  0.32222966  0.16754432    -0.11400
C1948       C  0.25703798  0.29720408  0.16730148     0.21300
C1949       C  0.26300822  0.28619922  0.14490822    -0.20700
C1950       C  0.26336948  0.29980561  0.12325652    -0.11500
C1951       C  0.25582533  0.28165071  0.18961445    -0.15700
C1952       C  0.26036255  0.28963744  0.21251937    -0.29600
C1953       C  0.25712715  0.34003115  0.10066535    -0.03800
C1954       C  0.25440898  0.33084821  0.07789850    -0.40400
H1955       H  0.24658538  0.35501381  0.14654781     0.12400
H1956       H  0.24591629  0.33120407  0.18433884     0.12000
H1957       H  0.26758116  0.26695725  0.14419077     0.11500
H1958       H  0.26863387  0.29066069  0.10657049     0.11700
H1959       H  0.25156307  0.26241314  0.18697602     0.14500
H1960       H  0.26448069  0.30877459  0.21579172     0.13200
H1961       H  0.25768592  0.35976640  0.10293253     0.10900
H1962       H  0.25201480  0.31133795  0.07526278     0.12900
C1963       C  0.86393402  0.32773673  0.45976472     0.19000
C1964       C  0.86768852  0.30228784  0.46074199    -0.19100
C1965       C  0.88923205  0.29204301  0.45144528    -0.11400
C1966       C  0.90722972  0.30710608  0.44103128     0.21300
C1967       C  0.90373238  0.33244532  0.44093722    -0.20700
C1968       C  0.88248034  0.34261384  0.45026526    -0.11500
C1969       C  0.92797770  0.29733931  0.42680625    -0.15700
C1970       C  0.93792286  0.27502026  0.42938998    -0.29600
C1971       C  0.84118944  0.34012141  0.46772438    -0.03800
C1972       C  0.82074303  0.32945714  0.47639644    -0.40400
H1973       H  0.85395240  0.29020001  0.46804804     0.12400
H1974       H  0.89119393  0.27236649  0.45134381     0.12000
H1975       H  0.91722380  0.34444315  0.43288634     0.11500
H1976       H  0.88027292  0.36226474  0.44939336     0.11700
H1977       H  0.93489437  0.30914484  0.41243767     0.14500
H1978       H  0.93292019  0.26323992  0.44448178     0.13200
H1979       H  0.84146860  0.35993013  0.46624093     0.10900
H1980       H  0.81949980  0.30984858  0.47882969     0.12900
C1981       C  0.13255743  0.17230142  0.46419174     0.19000
C1982       C  0.11343938  0.16077843  0.45167349    -0.19100
C1983       C  0.09331760  0.17419322  0.44402112    -0.11400
C1984       C  0.09199847  0.19939958  0.44882729     0.21300
C1985       C  0.11005344  0.21056061  0.46302892    -0.20700
C1986       C  0.13025736  0.19714440  0.47067209    -0.11500
C1987       C  0.07336710  0.21462611  0.43695456    -0.15700
C1988       C  0.06832817  0.21102461  0.41332974    -0.29600
C1989       C  0.15441570  0.15770992  0.47014560    -0.03800
C1990       C  0.17616676  0.16761676  0.47552318    -0.40400
H1991       H  0.11446236  0.14154209  0.44705520     0.12400
H1992       H  0.07915211  0.16505530  0.43363360     0.12000
H1993       H  0.10911138  0.22992233  0.46718210     0.11500
H1994       H  0.14401736  0.20642098  0.48135443     0.11700
H1995       H  0.06589726  0.23028456  0.44661793     0.14500
H1996       H  0.07752896  0.19651618  0.40336326     0.13200
H1997       H  0.15258132  0.13791647  0.46979671     0.10900
H1998       H  0.17877593  0.18724555  0.47595462     0.12900
C1999       C  0.02220980  0.36280884  0.31174043     0.19000
C2000       C  0.02020986  0.37169629  0.28787351    -0.19100
C2001       C  0.03136235  0.39387622  0.28161728    -0.11400
C2002       C  0.04430007  0.40735785  0.29937336     0.21300
C2003       C  0.04435087  0.39936306  0.32355959    -0.20700
C2004       C  0.03320850  0.37745889  0.32975733    -0.11500
C2005       C  0.06106727  0.42739847  0.29299788    -0.15700
C2006       C  0.05856864  0.44163069  0.27334462    -0.29600
C2007       C  0.01423313  0.33779474  0.31797227    -0.03800
C2008       C  0.02842546  0.32408942  0.33244044    -0.40400
H2009       H  0.01143897  0.36080888  0.27385303     0.12400
H2010       H  0.03123937  0.39949437  0.26270418     0.12000
H2011       H  0.05401071  0.40956128  0.33752948     0.11500
H2012       H  0.03410685  0.37142610  0.34854169     0.11700
H2013       H  0.07693263  0.42984588  0.30467014     0.14500
H2014       H  0.04220605  0.44083639  0.26223288     0.13200
H2015       H  0.99631806  0.33150271  0.31234084     0.10900
H2016       H  0.04635407  0.33081443  0.33757355     0.12900
C2017       C  0.99016514  0.41243010  0.46434669     0.19000
C2018       C  0.99442693  0.38962674  0.47543653    -0.19100
C2019       C  0.99428320  0.36784044  0.46172912    -0.11400
C2020       C  0.98975110  0.36829193  0.43642805     0.21300
C2021       C  0.98530379  0.39105929  0.42543468    -0.20700
C2022       C  0.98543004  0.41275457  0.43908309    -0.11500
C2023       C  0.98922625  0.34590408  0.42054742    -0.15700
C2024       C  0.99603447  0.32309481  0.42721127    -0.29600
C2025       C  0.99063243  0.43521852  0.47974393    -0.03800
C2026       C  0.99208356  0.45815969  0.47070907    -0.40400
H2027       H  0.99798233  0.38864858  0.49485070     0.12400
H2028       H  0.99754372  0.35082381  0.47114339     0.12000
H2029       H  0.98162008  0.39211863  0.40604686     0.11500
H2030       H  0.98142998  0.42957535  0.42961997     0.11700
H2031       H  0.98372784  0.34868618  0.40170471     0.14500
H2032       H  0.00239014  0.31948964  0.44556592     0.13200
H2033       H  0.99099578  0.43301086  0.49944501     0.10900
H2034       H  0.99315911  0.46078403  0.45122577     0.12900
C2035       C  0.83962196  0.25660600  0.28659962     0.19000
C2036       C  0.85417999  0.27776225  0.28570038    -0.19100
C2037       C  0.87812040  0.27767913  0.29462935    -0.11400
C2038       C  0.88816055  0.25652087  0.30502311     0.21300
C2039       C  0.87377043  0.23515272  0.30554373    -0.20700
C2040       C  0.84981346  0.23522140  0.29658473    -0.11500
C2041       C  0.91335043  0.25766093  0.31556708    -0.15700
C2042       C  0.92117993  0.24248575  0.33325586    -0.29600
C2043       C  0.81395080  0.25799277  0.27739776    -0.03800
C2044       C  0.79928710  0.23854993  0.27316612    -0.40400
H2045       H  0.84696257  0.29453266  0.27813526     0.12400
H2046       H  0.88868226  0.29440214  0.29384736     0.12000
H2047       H  0.88088839  0.21823699  0.31277173     0.11500
H2048       H  0.83938658  0.21851939  0.29793156     0.11700
H2049       H  0.92497799  0.27284147  0.31026652     0.14500
H2050       H  0.90905808  0.22844875  0.34014598     0.13200
H2051       H  0.80693873  0.27604570  0.27308702     0.10900
H2052       H  0.80614380  0.22017588  0.27562112     0.12900
C2053       C  0.16890458  0.26744543  0.29465406     0.19000
C2054       C  0.14655970  0.27044378  0.28238316    -0.19100
C2055       C  0.12435812  0.27052646  0.29505718    -0.11400
C2056       C  0.12382579  0.26748181  0.32053435     0.21300
C2057       C  0.14618630  0.26468326  0.33284692    -0.20700
C2058       C  0.16839834  0.26454967  0.32016447    -0.11500
C2059       C  0.10068970  0.26707881  0.33511627    -0.15700
C2060       C  0.07791835  0.26434965  0.32588864    -0.29600
C2061       C  0.19185292  0.26652404  0.27982468    -0.03800
C2062       C  0.21487703  0.26584387  0.28869536    -0.40400
H2063       H  0.14624115  0.27269946  0.26276318     0.12400
H2064       H  0.10778119  0.27314640  0.28474773     0.12000
H2065       H  0.14648287  0.26226531  0.35245070     0.11500
H2066       H  0.18494135  0.26181799  0.33047988     0.11700
H2067       H  0.10272050  0.26770649  0.35483169     0.14500
H2068       H  0.07512726  0.26242780  0.30640389     0.13200
H2069       H  0.18963374  0.26574516  0.26012646     0.10900
H2070       H  0.21824667  0.26623202  0.30815464     0.12900
C2071       C  0.79575429  0.43212584  0.60396578     0.19000
C2072       C  0.81966875  0.42910542  0.61202613    -0.19100
C2073       C  0.82791468  0.44170463  0.63239462    -0.11400
C2074       C  0.81209453  0.45708350  0.64548800     0.21300
C2075       C  0.78847932  0.46107283  0.63680128    -0.20700
C2076       C  0.78021857  0.44851744  0.61618741    -0.11500
C2077       C  0.82028627  0.46907522  0.66810027    -0.15700
C2078       C  0.83645665  0.45804023  0.68260248    -0.29600
C2079       C  0.78729011  0.41645946  0.58393186    -0.03800
C2080       C  0.76931172  0.42280140  0.56881553    -0.40400
H2081       H  0.83194848  0.41678177  0.60264144     0.12400
H2082       H  0.84667865  0.43924380  0.63790832     0.12000
H2083       H  0.77620991  0.47317586  0.64646161     0.11500
H2084       H  0.76149865  0.45091081  0.61053254     0.11700
H2085       H  0.81403679  0.48748368  0.67215224     0.14500
H2086       H  0.84242387  0.43951088  0.67875284     0.13200
H2087       H  0.79657914  0.39910847  0.58130491     0.10900
H2088       H  0.76088715  0.44070418  0.56993990     0.12900
C2089       C  0.78966025  0.56391664  0.89355763     0.19000
C2090       C  0.78676953  0.57152514  0.86930281    -0.19100
C2091       C  0.79549258  0.55719292  0.85012670    -0.11400
C2092       C  0.80755448  0.53513412  0.85503240     0.21300
C2093       C  0.80986353  0.52720701  0.87922547    -0.20700
C2094       C  0.80088468  0.54137408  0.89836762    -0.11500
C2095       C  0.82153592  0.52230775  0.83604017    -0.15700
C2096       C  0.81623212  0.52271203  0.81213049    -0.29600
C2097       C  0.78238621  0.58071570  0.91336411    -0.03800
C2098       C  0.77578033  0.57314094  0.93565954    -0.40400
H2099       H  0.77831192  0.58893755  0.86522760     0.12400
H2100       H  0.79408452  0.56410804  0.83170316     0.12000
H2101       H  0.81952263  0.51046001  0.88337814     0.11500
H2102       H  0.80390644  0.53523108  0.91686415     0.11700
H2103       H  0.83808750  0.51312496  0.84197544     0.14500
H2104       H  0.79916672  0.52995126  0.80526190     0.13200
H2105       H  0.78124352  0.60008555  0.90903404     0.10900
H2106       H  0.77440686  0.55379708  0.93983155     0.12900
C2107       C  0.95948106  0.50955010  0.58810654     0.19000
C2108       C  0.97166258  0.50663862  0.61051895    -0.19100
C2109       C  0.95886264  0.50610095  0.63262020    -0.11400
C2110       C  0.93337649  0.50850729  0.63287070     0.21300
C2111       C  0.92121560  0.51157037  0.61047016    -0.20700
C2112       C  0.93399526  0.51209283  0.58839275    -0.11500
C2113       C  0.91847677  0.50787547  0.65566347    -0.15700
C2114       C  0.92678533  0.50331936  0.67847932    -0.29600
C2115       C  0.97417780  0.50919440  0.56516170    -0.03800
C2116       C  0.96512293  0.51002897  0.54224852    -0.40400
H2117       H  0.99127635  0.50461038  0.61095447     0.12400
H2118       H  0.96910997  0.50382654  0.64928752     0.12000
H2119       H  0.90158725  0.51347999  0.60999370     0.11500
H2120       H  0.92367269  0.51442936  0.57179044     0.11700
H2121       H  0.89903445  0.51065882  0.65325891     0.14500
H2122       H  0.94587901  0.49978075  0.68189456     0.13200
H2123       H  0.99375063  0.50694912  0.56718358     0.10900
H2124       H  0.94575807  0.51152461  0.53893532     0.12900
C2125       C  0.96496794  0.49075050  0.91154452     0.19000
C2126       C  0.94017537  0.48459428  0.90917457    -0.19100
C2127       C  0.92861953  0.48538359  0.88635318    -0.11400
C2128       C  0.94161291  0.49210754  0.86520837     0.21300
C2129       C  0.96645575  0.49771169  0.86760658    -0.20700
C2130       C  0.97798130  0.49691870  0.89039783    -0.11500
C2131       C  0.92989059  0.49479717  0.84067348    -0.15700
C2132       C  0.90752331  0.48633123  0.83507931    -0.29600
C2133       C  0.97805569  0.49091654  0.93547535    -0.03800
C2134       C  0.96704502  0.49146647  0.95746601    -0.40400
H2135       H  0.92953093  0.47913290  0.92480339     0.12400
H2136       H  0.90940834  0.48122910  0.88569234     0.12000
H2137       H  0.97699217  0.50296823  0.85178246     0.11500
H2138       H  0.99713211  0.50156111  0.89155025     0.11700
H2139       H  0.94001743  0.50452397  0.82671021     0.14500
H2140       H  0.89723042  0.47592741  0.84831412     0.13200
H2141       H  0.99781364  0.49189727  0.93497899     0.10900
H2142       H  0.94738527  0.49264011  0.95856697     0.12900
C2143       C  0.79338533  0.66213425  0.74812219     0.19000
C2144       C  0.79060837  0.64259472  0.73159485    -0.19100
C2145       C  0.80237726  0.62014145  0.73544061    -0.11400
C2146       C  0.81745163  0.61665992  0.75595260     0.21300
C2147       C  0.82045704  0.63626447  0.77230918    -0.20700
C2148       C  0.80861218  0.65865596  0.76854096    -0.11500
C2149       C  0.83186959  0.59376334  0.75989202    -0.15700
C2150       C  0.82617050  0.57172994  0.75023509    -0.29600
C2151       C  0.78062412  0.68583630  0.74302379    -0.03800
C2152       C  0.77714065  0.70370962  0.75973120    -0.40400
H2153       H  0.77931806  0.64472870  0.71551856     0.12400
H2154       H  0.80013804  0.60586968  0.72193844     0.12000
H2155       H  0.83226655  0.63432902  0.78803683     0.11500
H2156       H  0.81197647  0.67324400  0.78143399     0.11700
H2157       H  0.84812197  0.59524748  0.77113398     0.14500
H2158       H  0.80947943  0.56949948  0.73985757     0.13200
H2159       H  0.77280235  0.68825754  0.72497311     0.10900
H2160       H  0.78302892  0.70092700  0.77838505     0.12900
C2161       C  0.71135544  0.16142515  0.76263758     0.19000
C2162       C  0.72226421  0.13881729  0.75727007    -0.19100
C2163       C  0.70909358  0.11689037  0.75903071    -0.11400
C2164       C  0.68455754  0.11698630  0.76648686     0.21300
C2165       C  0.67385574  0.13961287  0.77239357    -0.20700
C2166       C  0.68700459  0.16153144  0.77051474    -0.11500
C2167       C  0.66909250  0.09439092  0.76778790    -0.15700
C2168       C  0.67602706  0.07164735  0.76095647    -0.29600
C2169       C  0.72617281  0.18424944  0.76024937    -0.03800
C2170       C  0.71678251  0.20681042  0.75691629    -0.40400
H2171       H  0.74106475  0.13812309  0.75137488     0.12400
H2172       H  0.71833339  0.10010862  0.75443450     0.12000
H2173       H  0.65508589  0.14039146  0.77836002     0.11500
H2174       H  0.67807375  0.17842350  0.77551141     0.11700
H2175       H  0.65036038  0.09694355  0.77358638     0.14500
H2176       H  0.69433855  0.06820096  0.75457721     0.13200
H2177       H  0.74585801  0.18225445  0.75985697     0.10900
H2178       H  0.69726202  0.20907076  0.75536930     0.12900
C2179       C  0.76543156  0.18957110  0.88310644     0.19000
C2180       C  0.74617860  0.20318732  0.87316373    -0.19100
C2181       C  0.74665216  0.21102360  0.84883428    -0.11400
C2182       C  0.76654432  0.20544605  0.83357983     0.21300
C2183       C  0.78601540  0.19216242  0.84364794    -0.20700
C2184       C  0.78553995  0.18432271  0.86803042    -0.11500
C2185       C  0.76833132  0.21414363  0.80767050    -0.15700
C2186       C  0.74964859  0.22400767  0.79500311    -0.29600
C2187       C  0.76349392  0.18107727  0.90903895    -0.03800
C2188       C  0.77625182  0.16219230  0.91828743    -0.40400
H2189       H  0.73052213  0.20772141  0.88428224     0.12400
H2190       H  0.73149804  0.22178964  0.84240622     0.12000
H2191       H  0.80180180  0.18790738  0.83260893     0.11500
H2192       H  0.80110864  0.17448362  0.87494694     0.11700
H2193       H  0.78580443  0.21225717  0.79862956     0.14500
H2194       H  0.73155810  0.22390730  0.80283109     0.13200
H2195       H  0.74931348  0.18917357  0.92026763     0.10900
H2196       H  0.78928579  0.15265027  0.90689344     0.12900
C2197       C  0.62128739  0.23376686  0.67701109     0.19000
C2198       C  0.64364773  0.22533876  0.66787357    -0.19100
C2199       C  0.66509101  0.22745151  0.68167674    -0.11400
C2200       C  0.66470580  0.23836685  0.70497337     0.21300
C2201       C  0.64230053  0.24661588  0.71414891    -0.20700
C2202       C  0.62091490  0.24447258  0.70040095    -0.11500
C2203       C  0.68688176  0.24169031  0.72046333    -0.15700
C2204       C  0.70997407  0.23682152  0.71362016    -0.29600
C2205       C  0.59923554  0.23286493  0.66099284    -0.03800
C2206       C  0.57627181  0.23487233  0.66941187    -0.40400
H2207       H  0.64456417  0.21719169  0.64987117     0.12400
H2208       H  0.68176524  0.22056350  0.67387782     0.12000
H2209       H  0.64135772  0.25516984  0.73197622     0.11500
H2210       H  0.60438187  0.25197168  0.70797343     0.11700
H2211       H  0.68413238  0.24910273  0.73868447     0.14500
H2212       H  0.71416462  0.23077508  0.69528948     0.13200
H2213       H  0.60211720  0.23146261  0.64143590     0.10900
H2214       H  0.57288185  0.23568715  0.68885735     0.12900
C2215       C  0.73790494  0.30339227  0.60936555     0.19000
C2216       C  0.75732688  0.29087754  0.62048972    -0.19100
C2217       C  0.75589229  0.28283698  0.64479149    -0.11400
C2218       C  0.73487023  0.28712873  0.65890662     0.21300
C2219       C  0.71516734  0.29898440  0.64756906    -0.20700
C2220       C  0.71656357  0.30695269  0.62323762    -0.11500
C2221       C  0.73221910  0.27872326  0.68493963    -0.15700
C2222       C  0.75072312  0.27035189  0.69897889    -0.29600
C2223       C  0.74124403  0.31317064  0.58385654    -0.03800
C2224       C  0.72648978  0.32990179  0.57337761    -0.40400
H2225       H  0.77393047  0.28753960  0.61039983     0.12400
H2226       H  0.77131695  0.27311090  0.65219238     0.12000
H2227       H  0.69851328  0.30218466  0.65763588     0.11500
H2228       H  0.70076975  0.31582985  0.61557790     0.11700
H2229       H  0.71419944  0.27984610  0.69294164     0.14500
H2230       H  0.76915187  0.27145328  0.69205719     0.13200
H2231       H  0.75791581  0.30835544  0.57435112     0.10900
H2232       H  0.71059279  0.33630677  0.58311910     0.12900
C2233       C  0.78294553  0.33552283  0.73605392     0.19000
C2234       C  0.80842771  0.33829402  0.73712840    -0.19100
C2235       C  0.81899043  0.36159712  0.73894272    -0.11400
C2236       C  0.80441954  0.38280739  0.73953083     0.21300
C2237       C  0.77906488  0.38001428  0.73823838    -0.20700
C2238       C  0.76850578  0.35674092  0.73634756    -0.11500
C2239       C  0.81497539  0.40782670  0.74300451    -0.15700
C2240       C  0.83800692  0.41348183  0.73683505    -0.29600
C2241       C  0.77041879  0.31118229  0.73534929    -0.03800
C2242       C  0.78129408  0.28931907  0.73887302    -0.40400
H2243       H  0.82042180  0.32266243  0.73679547     0.12400
H2244       H  0.83858382  0.36276382  0.74061421     0.12000
H2245       H  0.76735067  0.39590302  0.73882656     0.11500
H2246       H  0.74885067  0.35531313  0.73555055     0.11700
H2247       H  0.80359848  0.42180292  0.75122854     0.14500
H2248       H  0.84918565  0.39991305  0.72776645     0.13200
H2249       H  0.75072477  0.31135603  0.73336627     0.10900
H2250       H  0.80063969  0.28845077  0.74232319     0.12900
C2251       C  0.55469846  0.89287543  0.78075838     0.19000
C2252       C  0.56199452  0.86872666  0.77630836    -0.19100
C2253       C  0.54987855  0.84933548  0.78729823    -0.11400
C2254       C  0.53019025  0.85388435  0.80291720     0.21300
C2255       C  0.52181645  0.87787234  0.80604242    -0.20700
C2256       C  0.53390424  0.89730008  0.79499066    -0.11500
C2257       C  0.52076558  0.83482361  0.81919948    -0.15700
C2258       C  0.52235321  0.81080973  0.81458488    -0.29600
C2259       C  0.57120970  0.91258772  0.77301163    -0.03800
C2260       C  0.56573806  0.93645060  0.77335275    -0.40400
H2261       H  0.57800088  0.86491861  0.76543662     0.12400
H2262       H  0.55711368  0.83109495  0.78491826     0.12000
H2263       H  0.50672500  0.88169885  0.81815642     0.11500
H2264       H  0.52782787  0.91564188  0.79906156     0.11700
H2265       H  0.51305474  0.84085767  0.83648122     0.14500
H2266       H  0.52775341  0.80382324  0.79686238     0.13200
H2267       H  0.58935454  0.90714321  0.76722517     0.10900
H2268       H  0.54746701  0.94301708  0.77679904     0.12900
C2269       C  0.65429709  0.70728641  0.95996700     0.19000
C2270       C  0.63276995  0.71309445  0.97239370    -0.19100
C2271       C  0.61216642  0.72064593  0.95940387    -0.11400
C2272       C  0.61313131  0.72273884  0.93383117     0.21300
C2273       C  0.63527288  0.71868385  0.92181879    -0.20700
C2274       C  0.65569282  0.71115233  0.93473205    -0.11500
C2275       C  0.59150266  0.72720866  0.91845129    -0.15700
C2276       C  0.56986991  0.73537928  0.92637325    -0.29600
C2277       C  0.67391773  0.69419327  0.97282080    -0.03800
C2278       C  0.68410446  0.67453951  0.96234516    -0.40400
H2279       H  0.63142325  0.71022382  0.99189227     0.12400
H2280       H  0.59541692  0.72353992  0.96929673     0.12000
H2281       H  0.63657632  0.72048498  0.90218680     0.11500
H2282       H  0.67231109  0.70730654  0.92482449     0.11700
H2283       H  0.59380957  0.72397553  0.89900062     0.14500
H2284       H  0.56699072  0.74049486  0.94526816     0.13200
H2285       H  0.67733626  0.69820780  0.99195073     0.10900
H2286       H  0.67852454  0.66893986  0.94413277     0.12900
C2287       C  0.43181748  0.59239513  0.81602842     0.19000
C2288       C  0.42721435  0.59792970  0.84053764    -0.19100
C2289       C  0.43954171  0.61707581  0.85195044    -0.11400
C2290       C  0.45638941  0.63117592  0.83889969     0.21300
C2291       C  0.46214418  0.62465150  0.81480698    -0.20700
C2292       C  0.44980940  0.60555443  0.80338880    -0.11500
C2293       C  0.46669080  0.65306097  0.85076750    -0.15700
C2294       C  0.47587348  0.67221699  0.83846672    -0.29600
C2295       C  0.41590943  0.57461178  0.80357882    -0.03800
C2296       C  0.42220797  0.56315821  0.78292961    -0.40400
H2297       H  0.41351333  0.58791376  0.85063022     0.12400
H2298       H  0.43512575  0.62155399  0.87069022     0.12000
H2299       H  0.47571892  0.63448968  0.80447674     0.11500
H2300       H  0.45366767  0.60205447  0.78436768     0.11700
H2301       H  0.46534622  0.65402771  0.87053323     0.14500
H2302       H  0.47739351  0.67216044  0.81877115     0.13200
H2303       H  0.39813492  0.57109202  0.81155970     0.10900
H2304       H  0.44044853  0.56477553  0.77554889     0.12900
C2305       C  0.51141299  0.63352217  0.93616242     0.19000
C2306       C  0.49664220  0.61370615  0.92927514    -0.19100
C2307       C  0.49772899  0.59158192  0.94190336    -0.11400
C2308       C  0.51410692  0.58858043  0.96136818     0.21300
C2309       C  0.52918993  0.60828369  0.96809601    -0.20700
C2310       C  0.52760644  0.63074998  0.95582856    -0.11500
C2311       C  0.51637635  0.56460095  0.97387704    -0.15700
C2312       C  0.49661021  0.55125311  0.97988587    -0.29600
C2313       C  0.51113802  0.65574736  0.92075981    -0.03800
C2314       C  0.51231574  0.67890765  0.92923571    -0.40400
H2315       H  0.48433835  0.61530692  0.91388995     0.12400
H2316       H  0.48632646  0.57654535  0.93590226     0.12000
H2317       H  0.54217213  0.60626727  0.98283578     0.11500
H2318       H  0.53961780  0.64558115  0.96107946     0.11700
H2319       H  0.53455652  0.55798940  0.97762897     0.14500
H2320       H  0.47883580  0.55861915  0.97527319     0.13200
H2321       H  0.50811570  0.65279523  0.90135546     0.10900
H2322       H  0.51288668  0.68255697  0.94870529     0.12900
C2323       C  0.66621551  0.75337190  0.79479962     0.19000
C2324       C  0.64556045  0.73940146  0.78876455    -0.19100
C2325       C  0.62339239  0.74291231  0.80084485    -0.11400
C2326       C  0.62122291  0.76062224  0.81940923     0.21300
C2327       C  0.64185827  0.77465870  0.82541380    -0.20700
C2328       C  0.66406277  0.77118182  0.81326442    -0.11500
C2329       C  0.59850909  0.76361173  0.83415746    -0.15700
C2330       C  0.57641252  0.75533110  0.82714533    -0.29600
C2331       C  0.68959743  0.74796518  0.78194898    -0.03800
C2332       C  0.70961048  0.76231904  0.78232283    -0.40400
H2333       H  0.64664409  0.72540478  0.77480263     0.12400
H2334       H  0.60833940  0.73108448  0.79602749     0.12000
H2335       H  0.64089127  0.78819311  0.83984156     0.11500
H2336       H  0.67951472  0.78207083  0.81889827     0.11700
H2337       H  0.60026194  0.77233026  0.85191632     0.14500
H2338       H  0.57398392  0.74713385  0.80928186     0.13200
H2339       H  0.69016137  0.73152637  0.77076329     0.10900
H2340       H  0.70949248  0.77975317  0.79174467     0.12900
C2341       C  0.49075931  0.91674861  0.95044401     0.19000
C2342       C  0.48443638  0.91153207  0.92614215    -0.19100
C2343       C  0.48430043  0.88739029  0.91740406    -0.11400
C2344       C  0.49059573  0.86777732  0.93284180     0.21300
C2345       C  0.49675916  0.87302072  0.95714009    -0.20700
C2346       C  0.49690476  0.89708803  0.96584872    -0.11500
C2347       C  0.49312309  0.84202535  0.92395859    -0.15700
C2348       C  0.48332582  0.83362113  0.90302567    -0.29600
C2349       C  0.49267096  0.94281759  0.95859955    -0.03800
C2350       C  0.49309776  0.94947054  0.98229208    -0.40400
H2351       H  0.48003416  0.92625145  0.91371557     0.12400
H2352       H  0.48014984  0.88443287  0.89834323     0.12000
H2353       H  0.50206843  0.85843486  0.96935845     0.11500
H2354       H  0.50280409  0.90009809  0.98443718     0.11700
H2355       H  0.50419116  0.82968131  0.93479193     0.14500
H2356       H  0.47166972  0.84533099  0.89220340     0.13200
H2357       H  0.49408566  0.95686195  0.94470671     0.10900
H2358       H  0.48916372  0.93584724  0.99606323     0.12900
C2359       C  0.20946240  0.83345077  0.74647317     0.19000
C2360       C  0.21602873  0.85327079  0.73163593    -0.19100
C2361       C  0.20328938  0.87539190  0.73285506    -0.11400
C2362       C  0.18350199  0.87811192  0.74892473     0.21300
C2363       C  0.17693159  0.85826602  0.76371622    -0.20700
C2364       C  0.18973808  0.83620529  0.76258587    -0.11500
C2365       C  0.16808131  0.90047702  0.74939143    -0.15700
C2366       C  0.17545532  0.92255827  0.74145059    -0.29600
C2367       C  0.22267225  0.80986864  0.74367543    -0.03800
C2368       C  0.22347187  0.79253860  0.76105844    -0.40400
H2369       H  0.23092876  0.85154328  0.71882896     0.12400
H2370       H  0.20851004  0.88990917  0.72058574     0.12000
H2371       H  0.16153438  0.85971049  0.77597616     0.11500
H2372       H  0.18358947  0.82118247  0.77378071     0.11700
H2373       H  0.14970432  0.89856825  0.75648030     0.14500
H2374       H  0.19405195  0.92531356  0.73542218     0.13200
H2375       H  0.23272185  0.80684782  0.72687265     0.10900
H2376       H  0.21555264  0.79596789  0.77884855     0.12900
C2377       C  0.32531315  0.62144381  0.73469799     0.19000
C2378       C  0.33217236  0.64136880  0.74944885    -0.19100
C2379       C  0.31930404  0.66344852  0.74859582    -0.11400
C2380       C  0.29967889  0.66634093  0.73241285     0.21300
C2381       C  0.29311573  0.64667912  0.71719776    -0.20700
C2382       C  0.30554605  0.62427372  0.71858765    -0.11500
C2383       C  0.28651109  0.69004305  0.73072202    -0.15700
C2384       C  0.27775581  0.70140507  0.75074706    -0.29600
C2385       C  0.34001753  0.59855988  0.73577552    -0.03800
C2386       C  0.33064717  0.57582541  0.73358814    -0.40400
H2387       H  0.34749086  0.63977981  0.76181478     0.12400
H2388       H  0.32500620  0.67846573  0.76020969     0.12000
H2389       H  0.27820402  0.64860908  0.70439934     0.11500
H2390       H  0.30013297  0.60944368  0.70663368     0.11700
H2391       H  0.28414564  0.69789966  0.71276976     0.14500
H2392       H  0.28106562  0.69276499  0.76827197     0.13200
H2393       H  0.35913095  0.60047935  0.74062097     0.10900
H2394       H  0.31117636  0.57336573  0.73111669     0.12900
C2395       C  0.33525352  0.73171321  0.79669264     0.19000
C2396       C  0.35716879  0.72355196  0.78636353    -0.19100
C2397       C  0.37845019  0.72188693  0.80038310    -0.11400
C2398       C  0.37844969  0.72869847  0.82517973     0.21300
C2399       C  0.35636533  0.73625986  0.83568939    -0.20700
C2400       C  0.33504872  0.73787544  0.82166639    -0.11500
C2401       C  0.40101035  0.72884300  0.84053421    -0.15700
C2402       C  0.42379864  0.72945040  0.83136410    -0.29600
C2403       C  0.31362054  0.73490825  0.78044670    -0.03800
C2404       C  0.29047601  0.73660816  0.78839366    -0.40400
H2405       H  0.35787998  0.71856888  0.76723488     0.12400
H2406       H  0.39476531  0.71526965  0.79160923     0.12000
H2407       H  0.35573495  0.74161950  0.85471506     0.11500
H2408       H  0.31877138  0.74475237  0.83035335     0.11700
H2409       H  0.39872358  0.73070033  0.86013946     0.14500
H2410       H  0.42664706  0.72941908  0.81181795     0.13200
H2411       H  0.31689984  0.73602958  0.76092451     0.10900
H2412       H  0.28661761  0.73496603  0.80765344     0.12900
C2413       C  0.17735203  0.53840630  0.36112233     0.19000
C2414       C  0.19400666  0.55665678  0.35435059    -0.19100
C2415       C  0.20533519  0.57089153  0.37215722    -0.11400
C2416       C  0.20058909  0.56675042  0.39688618     0.21300
C2417       C  0.18470248  0.54785956  0.40373753    -0.20700
C2418       C  0.17295758  0.53394771  0.38589492    -0.11500
C2419       C  0.21078637  0.58376513  0.41497151    -0.15700
C2420       C  0.21822922  0.57660730  0.43707854    -0.29600
C2421       C  0.16177895  0.52648330  0.34279405    -0.03800
C2422       C  0.16909325  0.52174475  0.31996576    -0.40400
H2423       H  0.19718596  0.56092964  0.33534911     0.12400
H2424       H  0.21738378  0.58555412  0.36662186     0.12000
H2425       H  0.18040138  0.54469754  0.42274553     0.11500
H2426       H  0.15984411  0.52020644  0.39138780     0.11700
H2427       H  0.21338079  0.60267518  0.40942907     0.14500
H2428       H  0.21801873  0.55741648  0.44213435     0.13200
H2429       H  0.14313961  0.52227376  0.34805389     0.10900
H2430       H  0.18804431  0.52364772  0.31466409     0.12900
C2431       C  0.32219331  0.53989536  0.63998676     0.19000
C2432       C  0.33059020  0.55959181  0.62621336    -0.19100
C2433       C  0.31734476  0.56778286  0.60634762    -0.11400
C2434       C  0.29560126  0.55593730  0.59939612     0.21300
C2435       C  0.28730243  0.53599152  0.61303580    -0.20700
C2436       C  0.30055425  0.52788769  0.63318399    -0.11500
C2437       C  0.28020549  0.56560697  0.57959108    -0.15700
C2438       C  0.28927231  0.58059008  0.56270434    -0.29600
C2439       C  0.33708973  0.53227533  0.66084114    -0.03800
C2440       C  0.32844604  0.51980897  0.67995768    -0.40400
H2441       H  0.34719274  0.56911096  0.63122135     0.12400
H2442       H  0.32393244  0.58399351  0.59726273     0.12000
H2443       H  0.27049210  0.52679375  0.60817266     0.11500
H2444       H  0.29393965  0.51217834  0.64312189     0.11700
H2445       H  0.26068015  0.56240312  0.58037396     0.14500
H2446       H  0.30864846  0.58402735  0.56136634     0.13200
H2447       H  0.35615703  0.53766722  0.66054185     0.10900
H2448       H  0.30944001  0.51453390  0.68111793     0.12900
C2449       C  0.35877892  0.68206213  0.45424998     0.19000
C2450       C  0.38327869  0.67752821  0.45987555    -0.19100
C2451       C  0.40172077  0.68964925  0.44724062    -0.11400
C2452       C  0.39570894  0.70596867  0.42846732     0.21300
C2453       C  0.37125729  0.71073665  0.42313003    -0.20700
C2454       C  0.35287499  0.69907101  0.43607130    -0.11500
C2455       C  0.41430533  0.71605948  0.41220800    -0.15700
C2456       C  0.43618411  0.72376407  0.41985275    -0.29600
C2457       C  0.33976258  0.66702977  0.46561635    -0.03800
C2458       C  0.31728754  0.67542355  0.47009943    -0.40400
H2459       H  0.38810207  0.66420037  0.47364024     0.12400
H2460       H  0.42054215  0.68532154  0.45123111     0.12000
H2461       H  0.36639457  0.72305499  0.40845359     0.11500
H2462       H  0.33413734  0.70239730  0.43094200     0.11700
H2463       H  0.40931358  0.71807172  0.39309390     0.14500
H2464       H  0.44083422  0.72405329  0.43912472     0.13200
H2465       H  0.34445646  0.64836942  0.47057596     0.10900
H2466       H  0.31279173  0.69458244  0.46759792     0.12900
C2467       C  0.41345969  0.54218850  0.51522991     0.19000
C2468       C  0.39021704  0.53214102  0.51912640    -0.19100
C2469       C  0.36944841  0.54702635  0.51984490    -0.11400
C2470       C  0.37134488  0.57247304  0.51641951     0.21300
C2471       C  0.39462834  0.58261576  0.51320033    -0.20700
C2472       C  0.41539408  0.56773924  0.51242274    -0.11500
C2473       C  0.34961769  0.58897021  0.51576713    -0.15700
C2474       C  0.32703573  0.58131811  0.50967487    -0.29600
C2475       C  0.43472428  0.52525909  0.51251555    -0.03800
C2476       C  0.45826108  0.53239441  0.51289025    -0.40400
H2477       H  0.38806815  0.51259575  0.52140921     0.12400
H2478       H  0.35200162  0.53846895  0.52312754     0.12000
H2479       H  0.39671421  0.60212983  0.51056249     0.11500
H2480       H  0.43269423  0.57641603  0.50884085     0.11700
H2481       H  0.35265838  0.60839473  0.51867490     0.14500
H2482       H  0.32390644  0.56224972  0.50522302     0.13200
H2483       H  0.43078561  0.50607991  0.50907488     0.10900
H2484       H  0.46292684  0.55139532  0.51596162     0.12900
C2485       C  0.08546525  0.54188546  0.49583912     0.19000
C2486       C  0.10849844  0.53086096  0.49788046    -0.19100
C2487       C  0.12997261  0.54468222  0.49612438    -0.11400
C2488       C  0.12905362  0.57016427  0.49243687     0.21300
C2489       C  0.10600843  0.58115905  0.49028595    -0.20700
C2490       C  0.08453163  0.56732764  0.49202326    -0.11500
C2491       C  0.15131062  0.58613228  0.49114662    -0.15700
C2492       C  0.17421082  0.57879121  0.49642596    -0.29600
C2493       C  0.06321925  0.52611568  0.49827212    -0.03800
C2494       C  0.04004073  0.53349198  0.49448835    -0.40400
H2495       H  0.10992962  0.51134062  0.50082893     0.12400
H2496       H  0.14709141  0.53512312  0.49761343     0.12000
H2497       H  0.10456461  0.60070205  0.48751545     0.11500
H2498       H  0.06738246  0.57686196  0.49063755     0.11700
H2499       H  0.14847554  0.60530680  0.48685823     0.14500
H2500       H  0.17774074  0.56005239  0.50163593     0.13200
H2501       H  0.06603875  0.50722230  0.50369229     0.10900
H2502       H  0.03601189  0.55220907  0.48956864     0.12900
C2503       C  0.24132133  0.70858400  0.66721720     0.19000
C2504       C  0.24061237  0.72055873  0.64457467    -0.19100
C2505       C  0.23869220  0.70734869  0.62273695    -0.11400
C2506       C  0.23769030  0.68163794  0.62296822     0.21300
C2507       C  0.23781411  0.66967848  0.64566293    -0.20700
C2508       C  0.23969504  0.68290990  0.66752555    -0.11500
C2509       C  0.23699306  0.66650255  0.60021937    -0.15700
C2510       C  0.24287776  0.67472639  0.57775872    -0.29600
C2511       C  0.24490277  0.72363687  0.68968970    -0.03800
C2512       C  0.24118729  0.71588388  0.71273987    -0.40400
H2513       H  0.24168338  0.74031904  0.64374909     0.12400
H2514       H  0.23801082  0.71746899  0.60584504     0.12000
H2515       H  0.23701958  0.64991642  0.64648155     0.11500
H2516       H  0.24052350  0.67283089  0.68444035     0.11700
H2517       H  0.23303552  0.64714554  0.60238598     0.14500
H2518       H  0.24800447  0.69366142  0.57499733     0.13200
H2519       H  0.25106200  0.74235953  0.68713735     0.10900
H2520       H  0.23556300  0.69726712  0.71644827     0.12900
C2521       C  0.37897442  0.76200118  0.31648336     0.19000
C2522       C  0.35654643  0.76609616  0.32816162    -0.19100
C2523       C  0.33441024  0.76350073  0.31558122    -0.11400
C2524       C  0.33406984  0.75681056  0.29076371     0.21300
C2525       C  0.35644386  0.75283563  0.27902113    -0.20700
C2526       C  0.37857678  0.75547807  0.29157052    -0.11500
C2527       C  0.31103052  0.75303118  0.27658747    -0.15700
C2528       C  0.28888317  0.76112081  0.28345980    -0.29600
C2529       C  0.40194172  0.76383433  0.33133475    -0.03800
C2530       C  0.42446857  0.75837011  0.32310848    -0.40400
H2531       H  0.35609409  0.77097033  0.34732614     0.12400
H2532       H  0.31771050  0.76623902  0.32560252     0.12000
H2533       H  0.35682819  0.74760675  0.25995487     0.11500
H2534       H  0.39512798  0.75217971  0.28151143     0.11700
H2535       H  0.31239667  0.74359500  0.25916150     0.14500
H2536       H  0.28649290  0.77132267  0.30024175     0.13200
H2537       H  0.39999381  0.76865427  0.35048391     0.10900
H2538       H  0.42721016  0.75287934  0.30432873     0.12900
C2539       C  0.31399366  0.88361104  0.23746428     0.19000
C2540       C  0.32476038  0.86039983  0.23548454    -0.19100
C2541       C  0.31075674  0.83896683  0.23677173    -0.11400
C2542       C  0.28532206  0.84006381  0.23999890     0.21300
C2543       C  0.27445614  0.86334482  0.24139317    -0.20700
C2544       C  0.28852481  0.88482597  0.24018068    -0.11500
C2545       C  0.26946624  0.81768169  0.24201920    -0.15700
C2546       C  0.27780587  0.79448109  0.24403290    -0.29600
C2547       C  0.33009144  0.90579719  0.23638081    -0.03800
C2548       C  0.32419033  0.92802769  0.24541297    -0.40400
H2549       H  0.34427440  0.85879010  0.23314546     0.12400
H2550       H  0.32014929  0.82173814  0.23506771     0.12000
H2551       H  0.25493030  0.86495622  0.24357036     0.11500
H2552       H  0.27931785  0.90225480  0.24113185     0.11700
H2553       H  0.24992432  0.82053480  0.24291795     0.14500
H2554       H  0.29717777  0.79113502  0.24472004     0.13200
H2555       H  0.34838087  0.90322155  0.22928862     0.10900
H2556       H  0.30653293  0.93082370  0.25379303     0.12900
C2557       C  0.17999885  0.62034037  0.26715724     0.19000
C2558       C  0.16856902  0.64333112  0.26692965    -0.19100
C2559       C  0.18206675  0.66498447  0.26478504    -0.11400
C2560       C  0.20762116  0.66433717  0.26298347     0.21300
C2561       C  0.21913776  0.64135979  0.26356879    -0.20700
C2562       C  0.20559200  0.61963826  0.26568117    -0.11500
C2563       C  0.22281868  0.68687604  0.25942028    -0.15700
C2564       C  0.21490181  0.71005278  0.26272891    -0.29600
C2565       C  0.16422427  0.59796340  0.26839106    -0.03800
C2566       C  0.17166146  0.57472236  0.26447734    -0.40400
H2567       H  0.14891294  0.64457931  0.26795054     0.12400
H2568       H  0.17219364  0.68201459  0.26394797     0.12000
H2569       H  0.23877512  0.64017957  0.26224649     0.11500
H2570       H  0.21532615  0.60249863  0.26609844     0.11700
H2571       H  0.24156679  0.68428382  0.25370176     0.14500
H2572       H  0.19644676  0.71350773  0.26858484     0.13200
H2573       H  0.14487430  0.60105681  0.27113328     0.10900
H2574       H  0.19060092  0.57078971  0.26063453     0.12900
C2575       C  0.26150938  0.68231291  0.38148302     0.19000
C2576       C  0.25578086  0.67200930  0.35871717    -0.19100
C2577       C  0.25397078  0.68659359  0.33786875    -0.11400
C2578       C  0.25831995  0.71194695  0.33917027     0.21300
C2579       C  0.26431818  0.72225037  0.36192723    -0.20700
C2580       C  0.26601490  0.70763430  0.38285281    -0.11500
C2581       C  0.25556834  0.72827548  0.31754633    -0.15700
C2582       C  0.25640190  0.72032441  0.29425756    -0.29600
C2583       C  0.26221315  0.66600899  0.40323424    -0.03800
C2584       C  0.25751193  0.67375420  0.42607440    -0.40400
H2585       H  0.25207628  0.65261010  0.35714653     0.12400
H2586       H  0.24851371  0.67790172  0.32098607     0.12000
H2587       H  0.26771774  0.74170661  0.36351920     0.11500
H2588       H  0.27100698  0.71620599  0.39995175     0.11700
H2589       H  0.25250905  0.74762046  0.32090302     0.14500
H2590       H  0.25985798  0.70124758  0.29032675     0.13200
H2591       H  0.26447162  0.64653689  0.40002150     0.10900
H2592       H  0.25352336  0.69286759  0.42947508     0.12900
C2593       C  0.85425683  0.68715035  0.03236691     0.19000
C2594       C  0.86385784  0.71072065  0.02948923    -0.19100
C2595       C  0.88638161  0.71674753  0.03997428    -0.11400
C2596       C  0.89958556  0.69905196  0.05312239     0.21300
C2597       C  0.89064632  0.67515293  0.05445654    -0.20700
C2598       C  0.86835404  0.66917510  0.04399738    -0.11500
C2599       C  0.92061886  0.70544651  0.06865429    -0.15700
C2600       C  0.93572242  0.72417780  0.06432075    -0.29600
C2601       C  0.82954904  0.68104650  0.02346840    -0.03800
C2602       C  0.81529447  0.66605041  0.03653437    -0.40400
H2603       H  0.85343563  0.72469469  0.02020743     0.12400
H2604       H  0.89268680  0.73546741  0.03895776     0.12000
H2605       H  0.90058751  0.66123248  0.06433946     0.11500
H2606       H  0.86187038  0.65053035  0.04551798     0.11700
H2607       H  0.92314725  0.69468554  0.08512471     0.14500
H2608       H  0.93478626  0.73422418  0.04728791     0.13200
H2609       H  0.82398674  0.68713990  0.00545771     0.10900
H2610       H  0.82114532  0.66035950  0.05459726     0.12900
C2611       C  0.02628988  0.63713884  0.18401546     0.19000
C2612       C  0.03295775  0.61499310  0.17293058    -0.19100
C2613       C  0.04144714  0.59561216  0.18691334    -0.11400
C2614       C  0.04331557  0.59800055  0.21231155     0.21300
C2615       C  0.03492128  0.61930363  0.22371118    -0.20700
C2616       C  0.02662259  0.63891368  0.20966524    -0.11500
C2617       C  0.05659803  0.57956187  0.22655565    -0.15700
C2618       C  0.07861365  0.57225703  0.21899359    -0.29600
C2619       C  0.02097182  0.65805177  0.16779676    -0.03800
C2620       C  0.01310694  0.68015255  0.17508307    -0.40400
H2621       H  0.03257334  0.61299360  0.15325779     0.12400
H2622       H  0.04750094  0.57908820  0.17783860     0.12000
H2623       H  0.03623814  0.62133805  0.24333083     0.11500
H2624       H  0.02159482  0.65556303  0.21899051     0.11700
H2625       H  0.04952446  0.57378474  0.24411934     0.14500
H2626       H  0.08634039  0.57994688  0.20244541     0.13200
H2627       H  0.02391416  0.65501107  0.14840420     0.10900
H2628       H  0.00852703  0.68391540  0.19392825     0.12900
C2629       C  0.98390775  0.58192493  0.04332590     0.19000
C2630       C  0.98270848  0.60462328  0.03142361    -0.19100
C2631       C  0.98170390  0.62653017  0.04465979    -0.11400
C2632       C  0.98212690  0.62635136  0.07032456     0.21300
C2633       C  0.98300507  0.60364095  0.08228225    -0.20700
C2634       C  0.98403316  0.58167970  0.06901581    -0.11500
C2635       C  0.98172116  0.64929676  0.08523291    -0.15700
C2636       C  0.98894045  0.67134041  0.07685307    -0.29600
C2637       C  0.98613942  0.55936511  0.02806134    -0.03800
C2638       C  0.98348750  0.53619596  0.03608446    -0.40400
H2639       H  0.98255461  0.60544083  0.01167368     0.12400
H2640       H  0.98038044  0.64347280  0.03464308     0.12000
H2641       H  0.98336729  0.60289734  0.10202278     0.11500
H2642       H  0.98543361  0.56474173  0.07902411     0.11700
H2643       H  0.97692142  0.64763178  0.10437819     0.14500
H2644       H  0.99545522  0.67319732  0.05829450     0.13200
H2645       H  0.99063656  0.56196008  0.00892823     0.10900
H2646       H  0.97926622  0.53244196  0.05500610     0.12900
C2647       C  0.83777912  0.76671526  0.20582568     0.19000
C2648       C  0.84536564  0.78277079  0.18740441    -0.19100
C2649       C  0.86891384  0.78125074  0.17764539    -0.11400
C2650       C  0.88556491  0.76364080  0.18628002     0.21300
C2651       C  0.87822377  0.74832855  0.20544939    -0.20700
C2652       C  0.85469843  0.74980746  0.21511127    -0.11500
C2653       C  0.91046267  0.76014508  0.17576353    -0.15700
C2654       C  0.91769633  0.76930169  0.15415104    -0.29600
C2655       C  0.81250587  0.76853411  0.21563095    -0.03800
C2656       C  0.80082473  0.74933463  0.22563473    -0.40400
H2657       H  0.83291068  0.79634674  0.18030590     0.12400
H2658       H  0.87383438  0.79401352  0.16347758     0.12000
H2659       H  0.89066227  0.73488691  0.21281166     0.11500
H2660       H  0.84993449  0.73779965  0.23002963     0.11700
H2661       H  0.92278085  0.74798923  0.18541021     0.14500
H2662       H  0.90549578  0.78058836  0.14349329     0.13200
H2663       H  0.80311495  0.78592613  0.21416634     0.10900
H2664       H  0.80921775  0.73140443  0.22478928     0.12900
C2665       C  0.15821687  0.73972210  0.21469997     0.19000
C2666       C  0.13513418  0.74327764  0.22524130    -0.19100
C2667       C  0.11368908  0.74042681  0.21149666    -0.11400
C2668       C  0.11471458  0.73389250  0.18663412     0.21300
C2669       C  0.13777577  0.72979247  0.17627139    -0.20700
C2670       C  0.15919079  0.73261772  0.19000065    -0.11500
C2671       C  0.09264394  0.73170006  0.17051037    -0.15700
C2672       C  0.06975714  0.73848888  0.17662230    -0.29600
C2673       C  0.18048843  0.74346362  0.23023919    -0.03800
C2674       C  0.20371509  0.74309493  0.22208607    -0.40400
H2675       H  0.13364847  0.74847586  0.24425626     0.12400
H2676       H  0.09650629  0.74342932  0.22055076     0.12000
H2677       H  0.13930007  0.72459058  0.15724715     0.11500
H2678       H  0.17631616  0.72914298  0.18101838     0.11700
H2679       H  0.09577843  0.72557408  0.15189769     0.14500
H2680       H  0.06589858  0.74546915  0.19471336     0.13200
H2681       H  0.17758689  0.74744869  0.24944357     0.10900
H2682       H  0.20749463  0.74099033  0.20282045     0.12900
C2683       C  0.15043964  0.81788012  0.05494621     0.19000
C2684       C  0.12642712  0.81991039  0.04675854    -0.19100
C2685       C  0.10813659  0.80622810  0.05765033    -0.11400
C2686       C  0.11367075  0.79071161  0.07725157     0.21300
C2687       C  0.13781171  0.78848828  0.08527737    -0.20700
C2688       C  0.15624556  0.80180334  0.07394959    -0.11500
C2689       C  0.09418640  0.77894578  0.09122356    -0.15700
C2690       C  0.07327598  0.77163165  0.08092403    -0.29600
C2691       C  0.16861514  0.83448045  0.04489101    -0.03800
C2692       C  0.19054698  0.82690382  0.03759371    -0.40400
H2693       H  0.12177813  0.83250419  0.03225238     0.12400
H2694       H  0.08956400  0.80882583  0.05158011     0.12000
H2695       H  0.14227039  0.77685951  0.10061788     0.11500
H2696       H  0.17473582  0.80045579  0.08071904     0.11700
H2697       H  0.09698776  0.77660012  0.11073701     0.14500
H2698       H  0.07089734  0.77174583  0.06124518     0.13200
H2699       H  0.16301662  0.85328041  0.04171811     0.10900
H2700       H  0.19553273  0.80770499  0.03839270     0.12900
C2701       C  0.35770504  0.83006689  0.94562709     0.19000
C2702       C  0.38218162  0.83685260  0.94753077    -0.19100
C2703       C  0.39986595  0.82331480  0.93552271    -0.11400
C2704       C  0.39302919  0.80321257  0.92111164     0.21300
C2705       C  0.36847340  0.79687272  0.91861690    -0.20700
C2706       C  0.35082616  0.81009272  0.93106226    -0.11500
C2707       C  0.41118835  0.78943645  0.90749151    -0.15700
C2708       C  0.43295976  0.78404879  0.91699991    -0.29600
C2709       C  0.33950170  0.84483115  0.95806035    -0.03800
C2710       C  0.32026403  0.83480446  0.96912845    -0.40400
H2711       H  0.38757515  0.85251729  0.95842751     0.12400
H2712       H  0.41875033  0.82886034  0.93702064     0.12000
H2713       H  0.36302271  0.78162737  0.90716301     0.11500
H2714       H  0.33185477  0.80510292  0.92888893     0.11700
H2715       H  0.40618846  0.78283125  0.88942189     0.14500
H2716       H  0.43739799  0.78848045  0.93582313     0.13200
H2717       H  0.34263976  0.86445003  0.95906412     0.10900
H2718       H  0.31804769  0.81509752  0.97017180     0.12900
C2719       C  0.30671603  0.97140459  0.14874631     0.19000
C2720       C  0.30980160  0.97934917  0.12465882    -0.19100
C2721       C  0.30407848  0.96394285  0.10523829    -0.11400
C2722       C  0.29530835  0.94027874  0.10973335     0.21300
C2723       C  0.29187511  0.93242022  0.13375655    -0.20700
C2724       C  0.29738689  0.94789221  0.15318527    -0.11500
C2725       C  0.29019701  0.92310392  0.08978921    -0.15700
C2726       C  0.28106593  0.93043219  0.06837978    -0.29600
C2727       C  0.31780998  0.98602758  0.16833022    -0.03800
C2728       C  0.31355546  0.98254325  0.19212608    -0.40400
H2729       H  0.31757561  0.99715584  0.12088882     0.12400
H2730       H  0.30742617  0.97020828  0.08682311     0.12000
H2731       H  0.28525452  0.91413402  0.13747939     0.11500
H2732       H  0.29561830  0.94082836  0.17150699     0.11700
H2733       H  0.29182669  0.90367775  0.09365107     0.14500
H2734       H  0.27715373  0.94959056  0.06504249     0.13200
H2735       H  0.33281237  0.99793057  0.16305100     0.10900
H2736       H  0.29818441  0.97203022  0.19875621     0.12900
C2737       C  0.17776596  0.93630849  0.84875318     0.19000
C2738       C  0.16827171  0.93938840  0.87227364    -0.19100
C2739       C  0.18169124  0.93220430  0.89262223    -0.11400
C2740       C  0.20458920  0.92131107  0.88961856     0.21300
C2741       C  0.21403215  0.91801673  0.86610426    -0.20700
C2742       C  0.20084759  0.92572127  0.84576045    -0.11500
C2743       C  0.21742895  0.91045642  0.91044600    -0.15700
C2744       C  0.21774898  0.92043495  0.93282889    -0.29600
C2745       C  0.16300708  0.94420657  0.82777054    -0.03800
C2746       C  0.17289273  0.95468543  0.80804547    -0.40400
H2747       H  0.15044324  0.94741391  0.87488389     0.12400
H2748       H  0.17376034  0.93425199  0.91057780     0.12000
H2749       H  0.23148334  0.90918661  0.86350248     0.11500
H2750       H  0.20836077  0.92274607  0.82775510     0.11700
H2751       H  0.22679212  0.89321807  0.90727692     0.14500
H2752       H  0.21059400  0.93861614  0.93624138     0.13200
H2753       H  0.14331778  0.94406038  0.82986950     0.10900
H2754       H  0.19248578  0.95707589  0.80672989     0.12900
C2755       C  0.26510504  0.82135706  0.88238620     0.19000
C2756       C  0.25995291  0.83130592  0.85930601    -0.19100
C2757       C  0.25841679  0.81634807  0.83851013    -0.11400
C2758       C  0.26218110  0.79096101  0.84026239     0.21300
C2759       C  0.26801731  0.78111616  0.86319664    -0.20700
C2760       C  0.26965339  0.79607524  0.88396479    -0.11500
C2761       C  0.25860494  0.77396402  0.81913541    -0.15700
C2762       C  0.26083453  0.78044398  0.79549597    -0.29600
C2763       C  0.26511316  0.83789624  0.90421796    -0.03800
C2764       C  0.26185526  0.83015860  0.92737853    -0.40400
H2765       H  0.25641682  0.85068796  0.85744775     0.12400
H2766       H  0.25341474  0.82465632  0.82133767     0.12000
H2767       H  0.27117491  0.76167132  0.86509034     0.11500
H2768       H  0.27443670  0.78767849  0.90114333     0.11700
H2769       H  0.25375552  0.75518024  0.82330352     0.14500
H2770       H  0.26515490  0.79920364  0.79080151     0.13200
H2771       H  0.26593884  0.85745943  0.90087027     0.10900
H2772       H  0.25940622  0.81085999  0.93112249     0.12900
C2773       C  0.24876866  0.79730556  0.16903877     0.19000
C2774       C  0.26207056  0.79053320  0.14823604    -0.19100
C2775       C  0.26013992  0.80382685  0.12648769    -0.11400
C2776       C  0.24484178  0.82443481  0.12499211     0.21300
C2777       C  0.23163876  0.83126376  0.14587566    -0.20700
C2778       C  0.23346559  0.81786328  0.16759828    -0.11500
C2779       C  0.24335866  0.84013872  0.10267816    -0.15700
C2780       C  0.25023220  0.83280657  0.08019065    -0.29600
C2781       C  0.25249466  0.78337505  0.19214288    -0.03800
C2782       C  0.23644050  0.78275949  0.21071196    -0.40400
H2783       H  0.27424649  0.77499407  0.14888091     0.12400
H2784       H  0.27128026  0.79824202  0.11122964     0.12000
H2785       H  0.22001697  0.84722992  0.14546586     0.11500
H2786       H  0.22343138  0.82413122  0.18336939     0.11700
H2787       H  0.23655011  0.85863796  0.10496564     0.14500
H2788       H  0.25641128  0.81422857  0.07725058     0.13200
H2789       H  0.26896086  0.77247924  0.19371809     0.10900
H2790       H  0.21885755  0.79159125  0.20895559     0.12900
C2791       C  0.41761739  0.95974592  0.00809155     0.19000
C2792       C  0.39806923  0.96549806  0.99252757    -0.19100
C2793       C  0.37514214  0.95464620  0.99560268    -0.11400
C2794       C  0.37119023  0.93762266  0.01438723     0.21300
C2795       C  0.39062235  0.93211999  0.03015103    -0.20700
C2796       C  0.41351576  0.94304676  0.02715084    -0.11500
C2797       C  0.34812787  0.92330816  0.01658526    -0.15700
C2798       C  0.32653499  0.92981170  0.00672430    -0.29600
C2799       C  0.44200832  0.97078053  0.00302130    -0.03800
C2800       C  0.46123111  0.97036887  0.01839806    -0.40400
H2801       H  0.40065627  0.97815838  0.97758565     0.12400
H2802       H  0.36093687  0.95895529  0.98262971     0.12000
H2803       H  0.38822687  0.91885529  0.04459050     0.11500
H2804       H  0.42799278  0.93768585  0.03936709     0.11700
H2805       H  0.34929551  0.90598641  0.02618178     0.14500
H2806       H  0.32442656  0.94743763  0.99796292     0.13200
H2807       H  0.44417156  0.98040128  0.98581817     0.10900
H2808       H  0.45975979  0.96228638  0.03635606     0.12900
C2809       C  0.02866886  0.87227524  0.66954427     0.19000
C2810       C  0.03842455  0.89107881  0.65520551    -0.19100
C2811       C  0.04682700  0.91255076  0.66605705    -0.11400
C2812       C  0.04545799  0.91552550  0.69146774     0.21300
C2813       C  0.03341017  0.89791188  0.70547609    -0.20700
C2814       C  0.02508974  0.87635253  0.69464550    -0.11500
C2815       C  0.05906763  0.93505941  0.70406821    -0.15700
C2816       C  0.08165285  0.94092220  0.69689320    -0.29600
C2817       C  0.02349003  0.84855861  0.65765799    -0.03800
C2818       C  0.02070709  0.82736791  0.66968896    -0.40400
H2819       H  0.04070674  0.88865756  0.63571414     0.12400
H2820       H  0.05534864  0.92631534  0.65476015     0.12000
H2821       H  0.03181837  0.90013395  0.72506639     0.11500
H2822       H  0.01655536  0.86282469  0.70614013     0.11700
H2823       H  0.05228907  0.94164616  0.72154521     0.14500
H2824       H  0.08925252  0.93279515  0.68043553     0.13200
H2825       H  0.02290289  0.84834097  0.63777669     0.10900
H2826       H  0.02068641  0.82651731  0.68947522     0.12900
C2827       C  0.93307671  0.60450861  0.71184089     0.19000
C2828       C  0.92474760  0.62858197  0.71433189    -0.19100
C2829       C  0.93867606  0.64803601  0.70574870    -0.11400
C2830       C  0.96098827  0.64355337  0.69414811     0.21300
C2831       C  0.96961705  0.61951119  0.69222717    -0.20700
C2832       C  0.95586209  0.60007716  0.70118234    -0.11500
C2833       C  0.97350000  0.66286039  0.68039022    -0.15700
C2834       C  0.97237680  0.68672888  0.68594502    -0.29600
C2835       C  0.91666141  0.58442412  0.71866694    -0.03800
C2836       C  0.92452464  0.56297586  0.72738962    -0.40400
H2837       H  0.90711375  0.63226853  0.72234847     0.12400
H2838       H  0.93125039  0.66632738  0.70685212     0.12000
H2839       H  0.98659622  0.61570824  0.68294138     0.11500
H2840       H  0.96245625  0.58161169  0.69858116     0.11700
H2841       H  0.98319396  0.65721569  0.66402201     0.14500
H2842       H  0.96476397  0.69318895  0.70303687     0.13200
H2843       H  0.89720024  0.58796277  0.71770715     0.10900
H2844       H  0.94375247  0.55980735  0.73073778     0.12900
C2845       C  0.09526957  0.70479783  0.55714544     0.19000
C2846       C  0.11532632  0.71757971  0.54799843    -0.19100
C2847       C  0.13639611  0.70502237  0.54135023    -0.11400
C2848       C  0.13745708  0.67936055  0.54345364     0.21300
C2849       C  0.11670808  0.66661403  0.55124675    -0.20700
C2850       C  0.09579503  0.67918302  0.55806466    -0.11500
C2851       C  0.15961781  0.66494277  0.53821243    -0.15700
C2852       C  0.18050765  0.67419726  0.52952687    -0.29600
C2853       C  0.07521978  0.71848832  0.56842555    -0.03800
C2854       C  0.06763355  0.71222114  0.59073156    -0.40400
H2855       H  0.11515729  0.73736426  0.54726770     0.12400
H2856       H  0.15178464  0.71570370  0.53529862     0.12000
H2857       H  0.11686946  0.64684841  0.55268975     0.11500
H2858       H  0.08028642  0.66897465  0.56478702     0.11700
H2859       H  0.15836578  0.64525986  0.54098324     0.14500
H2860       H  0.18252566  0.69348572  0.52542627     0.13200
H2861       H  0.06922178  0.73549606  0.56020587     0.10900
H2862       H  0.07555839  0.69648696  0.59982235     0.12900
C2863       C  0.85470707  0.80283170  0.53661294     0.19000
C2864       C  0.87920361  0.80663779  0.53044050    -0.19100
C2865       C  0.89777499  0.79578018  0.54400262    -0.11400
C2866       C  0.89208709  0.78112128  0.56420174     0.21300
C2867       C  0.86758608  0.77637642  0.56967312    -0.20700
C2868       C  0.84899198  0.78697762  0.55589299    -0.11500
C2869       C  0.91102423  0.77323000  0.58164665    -0.15700
C2870       C  0.93427902  0.76892580  0.57546357    -0.29600
C2871       C  0.83614153  0.81880144  0.52544661    -0.03800
C2872       C  0.81219684  0.81378669  0.52444358    -0.40400
H2873       H  0.88400602  0.81902925  0.51582757     0.12400
H2874       H  0.91646875  0.80021272  0.53962411     0.12000
H2875       H  0.86283249  0.76526994  0.58529725     0.11500
H2876       H  0.83032244  0.78409532  0.56145954     0.11700
H2877       H  0.90552872  0.77083240  0.60054884     0.14500
H2878       H  0.93992974  0.76885342  0.55650390     0.13200
H2879       H  0.84247666  0.83634280  0.51857267     0.10900
H2880       H  0.80508804  0.79587035  0.52905921     0.12900
C2881       C  0.16537903  0.76354865  0.71369577     0.19000
C2882       C  0.14261026  0.76558039  0.72525947    -0.19100
C2883       C  0.12096702  0.76774779  0.71174146    -0.11400
C2884       C  0.12138943  0.76785284  0.68603878     0.21300
C2885       C  0.14421044  0.76639888  0.67446690    -0.20700
C2886       C  0.16586399  0.76421921  0.68798644    -0.11500
C2887       C  0.09877492  0.76878327  0.67050061    -0.15700
C2888       C  0.07574808  0.76564802  0.67875651    -0.29600
C2889       C  0.18769748  0.76012740  0.72928862    -0.03800
C2890       C  0.21083936  0.75858949  0.72100020    -0.40400
H2891       H  0.14149474  0.76529881  0.74498023     0.12400
H2892       H  0.10407405  0.76928602  0.72166646     0.12000
H2893       H  0.14529974  0.76650475  0.65473688     0.11500
H2894       H  0.18273802  0.76272198  0.67801570     0.11700
H2895       H  0.10140452  0.77047819  0.65092650     0.14500
H2896       H  0.07241702  0.76287597  0.69802012     0.13200
H2897       H  0.18487727  0.75825804  0.74881267     0.10900
H2898       H  0.21445962  0.76002417  0.70170317     0.12900
C2899       C  0.01667677  0.58549006  0.54785097     0.19000
C2900       C  0.03280733  0.59399586  0.56592797    -0.19100
C2901       C  0.03098160  0.61791808  0.57521988    -0.11400
C2902       C  0.01298715  0.63410217  0.56648690     0.21300
C2903       C  0.99761658  0.62587710  0.54764354    -0.20700
C2904       C  0.99936532  0.60197478  0.53847193    -0.11500
C2905       C  0.00931348  0.65943872  0.57650574    -0.15700
C2906       C  0.01746083  0.66690809  0.59854599    -0.29600
C2907       C  0.01890734  0.55979979  0.53842638    -0.03800
C2908       C  0.00004424  0.54742039  0.52839233    -0.40400
H2909       H  0.04672587  0.58198330  0.57310256     0.12400
H2910       H  0.04384105  0.62357911  0.58908323     0.12000
H2911       H  0.98388586  0.63792832  0.54016050     0.11500
H2912       H  0.98725893  0.59660662  0.52381470     0.11700
H2913       H  0.99786406  0.67183206  0.56611126     0.14500
H2914       H  0.02788662  0.65444861  0.60980892     0.13200
H2915       H  0.03634841  0.55068585  0.54036450     0.10900
H2916       H  0.98212117  0.55573066  0.52890782     0.12900
C2917       C  0.87872418  0.73504700  0.68263476     0.19000
C2918       C  0.85581429  0.73568771  0.67120892    -0.19100
C2919       C  0.83432530  0.73644436  0.68495630    -0.11400
C2920       C  0.83520919  0.73626931  0.71065479     0.21300
C2921       C  0.85812596  0.73523808  0.72204824    -0.20700
C2922       C  0.87959821  0.73452482  0.70829960    -0.11500
C2923       C  0.81304894  0.73839333  0.72633855    -0.15700
C2924       C  0.78993495  0.73619922  0.71831556    -0.29600
C2925       C  0.90110333  0.73498126  0.66713434    -0.03800
C2926       C  0.92321384  0.74230605  0.67505196    -0.40400
H2927       H  0.85453215  0.73609948  0.65148825     0.12400
H2928       H  0.81725637  0.73771204  0.67523910     0.12000
H2929       H  0.85945397  0.73505362  0.74176320     0.11500
H2930       H  0.89675109  0.73336449  0.71792286     0.11700
H2931       H  0.81584788  0.74256371  0.74554466     0.14500
H2932       H  0.78605054  0.73205190  0.69939269     0.13200
H2933       H  0.89893458  0.73029184  0.64797002     0.10900
H2934       H  0.92556286  0.74864447  0.69366851     0.12900
C2935       C  0.91528475  0.95405116  0.48485893     0.19000
C2936       C  0.90384204  0.93957949  0.46702225    -0.19100
C2937       C  0.88010507  0.93080881  0.47046397    -0.11400
C2938       C  0.86714346  0.93629927  0.49197356     0.21300
C2939       C  0.87824242  0.95152455  0.50939311    -0.20700
C2940       C  0.90194761  0.96033198  0.50592922    -0.11500
C2941       C  0.84220378  0.92647442  0.49692775    -0.15700
C2942       C  0.83373099  0.90578311  0.48660807    -0.29600
C2943       C  0.94057664  0.96317812  0.48038168    -0.03800
C2944       C  0.95526195  0.97133139  0.49837331    -0.40400
H2945       H  0.91334838  0.93495427  0.45033934     0.12400
H2946       H  0.87197599  0.91998895  0.45606288     0.12000
H2947       H  0.86860856  0.95645933  0.52590789     0.11500
H2948       H  0.90948546  0.97234466  0.51970050     0.11700
H2949       H  0.83127043  0.93545019  0.51079575     0.14500
H2950       H  0.84513290  0.89570116  0.47399925     0.13200
H2951       H  0.94738327  0.96273375  0.46180967     0.10900
H2952       H  0.94937489  0.96926093  0.51712513     0.12900
C2953       C  0.12963106  0.06878760  0.51541341     0.19000
C2954       C  0.10678796  0.08023964  0.51327207    -0.19100
C2955       C  0.08533561  0.06651347  0.51038435    -0.11400
C2956       C  0.08614646  0.04078854  0.50965527     0.21300
C2957       C  0.10892436  0.02935108  0.51212153    -0.20700
C2958       C  0.13033487  0.04304503  0.51504542    -0.11500
C2959       C  0.06416075  0.02499566  0.50572950    -0.15700
C2960       C  0.04075596  0.03261726  0.50619361    -0.29600
C2961       C  0.15202233  0.08447268  0.51734660    -0.03800
C2962       C  0.17513746  0.07625568  0.51518183    -0.40400
H2963       H  0.10554160  0.09999862  0.51343280     0.12400
H2964       H  0.06837300  0.07625839  0.50829204     0.12000
H2965       H  0.11021195  0.00959363  0.51173228     0.11500
H2966       H  0.14723953  0.03320168  0.51701174     0.11700
H2967       H  0.06743949  0.00570770  0.50229151     0.14500
H2968       H  0.03644519  0.05167845  0.50925779     0.13200
H2969       H  0.14923452  0.10407221  0.51892345     0.10900
H2970       H  0.17871213  0.05701585  0.51231769     0.12900
C2971       C  0.07470113  0.99913743  0.62376758     0.19000
C2972       C  0.08096573  0.98482207  0.60342910    -0.19100
C2973       C  0.06778959  0.98648151  0.58161487    -0.11400
C2974       C  0.04800456  0.00267287  0.57962619     0.21300
C2975       C  0.04191705  0.01717470  0.59990034    -0.20700
C2976       C  0.05505346  0.01547101  0.62171857    -0.11500
C2977       C  0.03372684  0.00573505  0.55670986    -0.15700
C2978       C  0.03402382  0.99005345  0.53771388    -0.29600
C2979       C  0.09006030  0.99761431  0.64611537    -0.03800
C2980       C  0.08278332  0.00482303  0.66847655    -0.40400
H2981       H  0.09626270  0.97238608  0.60436887     0.12400
H2982       H  0.07358047  0.97542759  0.56632563     0.12000
H2983       H  0.02699260  0.03004204  0.59881415     0.11500
H2984       H  0.05010356  0.02744497  0.63662232     0.11700
H2985       H  0.02159899  0.02139827  0.55564755     0.14500
H2986       H  0.04426067  0.97315186  0.53855940     0.13200
H2987       H  0.10824792  0.99012900  0.64399004     0.10900
H2988       H  0.06438887  0.01134342  0.67140894     0.12900
C2989       C  0.01557589  0.08473558  0.45414974     0.19000
C2990       C  0.03323483  0.09462459  0.43844015    -0.19100
C2991       C  0.03137734  0.11875907  0.42985241    -0.11400
C2992       C  0.01176514  0.13380814  0.43689047     0.21300
C2993       C  0.99468627  0.12423750  0.45339097    -0.20700
C2994       C  0.99648292  0.10009871  0.46187718    -0.11500
C2995       C  0.00824686  0.15933004  0.42739539    -0.15700
C2996       C  0.01752160  0.16730025  0.40604910    -0.29600
C2997       C  0.01832099  0.05888876  0.46300554    -0.03800
C2998       C  0.99983332  0.04552851  0.47238640    -0.40400
H2999       H  0.04850410  0.08355490  0.43262995     0.12400
H3000       H  0.04547959  0.12553678  0.41790342     0.12000
H3001       H  0.97962858  0.13541082  0.45953322     0.11500
H3002       H  0.98300597  0.09375153  0.47475412     0.11700
H3003       H  0.99588328  0.17125147  0.43725977     0.14500
H3004       H  0.02864506  0.15508497  0.39518298     0.13200
H3005       H  0.03613709  0.05049606  0.46138952     0.10900
H3006       H  0.98156600  0.05298015  0.47167480     0.12900
C3007       C  0.98658810  0.86657815  0.56544181     0.19000
C3008       C  0.98489204  0.88991534  0.57617355    -0.19100
C3009       C  0.98613233  0.91125653  0.56205600    -0.11400
C3010       C  0.98910248  0.90997357  0.53656652     0.21300
C3011       C  0.99024948  0.88661660  0.52572108    -0.20700
C3012       C  0.98909786  0.86520493  0.53989506    -0.11500
C3013       C  0.99040946  0.93237556  0.52069993    -0.15700
C3014       C  0.99581321  0.95513534  0.52895389    -0.29600
C3015       C  0.98554354  0.84455295  0.58177680    -0.03800
C3016       C  0.99222243  0.82153433  0.57552589    -0.40400
H3017       H  0.98269611  0.89170422  0.59573338     0.12400
H3018       H  0.98436855  0.92864220  0.57127791     0.12000
H3019       H  0.99218552  0.88490271  0.50612656     0.11500
H3020       H  0.98996152  0.84773739  0.53068704     0.11700
H3021       H  0.98772338  0.92987724  0.50120326     0.14500
H3022       H  0.00032303  0.95760097  0.54805172     0.13200
H3023       H  0.98038617  0.84788274  0.60062606     0.10900
H3024       H  0.99857466  0.81762639  0.55722642     0.12900
C3025       C  0.96550447  0.14093915  0.31130883     0.19000
C3026       C  0.96645223  0.11776043  0.32219486    -0.19100
C3027       C  0.95930239  0.09701019  0.30928473    -0.11400
C3028       C  0.95099682  0.09905928  0.28517231     0.21300
C3029       C  0.95131520  0.12195427  0.27372729    -0.20700
C3030       C  0.95834652  0.14284594  0.28672940    -0.11500
C3031       C  0.93980216  0.07799745  0.27254276    -0.15700
C3032       C  0.92443645  0.06319276  0.28446613    -0.29600
C3033       C  0.97079417  0.16239732  0.32692972    -0.03800
C3034       C  0.97477237  0.18531539  0.31898524    -0.40400
H3035       H  0.97214463  0.11574724  0.34101768     0.12400
H3036       H  0.95966183  0.07944845  0.31835114     0.12000
H3037       H  0.94490048  0.12384589  0.25513114     0.11500
H3038       H  0.95718268  0.16036978  0.27773483     0.11700
H3039       H  0.94116526  0.07682148  0.25279244     0.14500
H3040       H  0.92072893  0.06626104  0.30369853     0.13200
H3041       H  0.97224769  0.15883491  0.34639346     0.10900
H3042       H  0.97536238  0.18960032  0.29970573     0.12900
C3043       C  0.77939272  0.07130071  0.11451917     0.19000
C3044       C  0.78621673  0.08342576  0.13606098    -0.19100
C3045       C  0.79403336  0.07031450  0.15633051    -0.11400
C3046       C  0.79534885  0.04469981  0.15542462     0.21300
C3047       C  0.78674940  0.03236947  0.13468451    -0.20700
C3048       C  0.77893154  0.04552836  0.11426476    -0.11500
C3049       C  0.80831122  0.03093149  0.17462522    -0.15700
C3050       C  0.82918751  0.03980243  0.18380515    -0.29600
C3051       C  0.77400955  0.08658049  0.09285785    -0.03800
C3052       C  0.76751093  0.07811183  0.07073591    -0.40400
H3053       H  0.78631032  0.10322573  0.13697847     0.12400
H3054       H  0.79992348  0.08025511  0.17240757     0.12000
H3055       H  0.78745090  0.01259852  0.13374466     0.11500
H3056       H  0.77343815  0.03534917  0.09826992     0.11700
H3057       H  0.80279616  0.01227500  0.17861450     0.14500
H3058       H  0.83586851  0.05750013  0.17778026     0.13200
H3059       H  0.77556857  0.10626695  0.09533892     0.10900
H3060       H  0.76465249  0.05880182  0.06734524     0.12900
C3061       C  0.80206008  0.92280936  0.39143606     0.19000
C3062       C  0.79538603  0.91732470  0.36732224    -0.19100
C3063       C  0.80834602  0.92723606  0.34785951    -0.11400
C3064       C  0.82851907  0.94236054  0.35233824     0.21300
C3065       C  0.83538838  0.94761419  0.37643834    -0.20700
C3066       C  0.82209213  0.93813249  0.39591304    -0.11500
C3067       C  0.84336133  0.95202819  0.33224012    -0.15700
C3068       C  0.83360609  0.96012865  0.31131001    -0.29600
C3069       C  0.78943094  0.91016332  0.41139056    -0.03800
C3070       C  0.78613177  0.91966352  0.43379052    -0.40400
H3071       H  0.78025558  0.90513272  0.36356970     0.12400
H3072       H  0.80308746  0.92247858  0.32939879     0.12000
H3073       H  0.85110204  0.95903160  0.38016452     0.11500
H3074       H  0.82803814  0.94200814  0.41436520     0.11700
H3075       H  0.86276751  0.95433464  0.33554154     0.14500
H3076       H  0.81400281  0.96024245  0.30866499     0.13200
H3077       H  0.78215212  0.89210232  0.40724389     0.10900
H3078       H  0.79111687  0.93842798  0.43797457     0.12900
C3079       C  0.96970425  0.86935580  0.16544306     0.19000
C3080       C  0.96027593  0.88952930  0.15285855    -0.19100
C3081       C  0.95462159  0.91102368  0.16534381    -0.11400
C3082       C  0.95828258  0.91262744  0.19070975     0.21300
C3083       C  0.96992008  0.89341310  0.20282663    -0.20700
C3084       C  0.97557209  0.87188164  0.19033866    -0.11500
C3085       C  0.94686118  0.93221754  0.20536192    -0.15700
C3086       C  0.92419225  0.93933870  0.19993285    -0.29600
C3087       C  0.97325021  0.84618645  0.15190229    -0.03800
C3088       C  0.97506565  0.82416789  0.16263119    -0.40400
H3089       H  0.95634027  0.88831697  0.13351425     0.12400
H3090       H  0.94638251  0.92596469  0.15537771     0.12000
H3091       H  0.97324990  0.89445710  0.22228472     0.11500
H3092       H  0.98406638  0.85721266  0.20039682     0.11700
H3093       H  0.95495996  0.93744094  0.22270928     0.14500
H3094       H  0.91537240  0.93229932  0.18359625     0.13200
H3095       H  0.97427694  0.84732608  0.13211745     0.10900
H3096       H  0.97414491  0.82225649  0.18228915     0.12900
C3097       C  0.79651789  0.83343776  0.26222574     0.19000
C3098       C  0.78538294  0.85655691  0.26394257    -0.19100
C3099       C  0.79908177  0.87820363  0.26230166    -0.11400
C3100       C  0.82443897  0.87732900  0.25878813     0.21300
C3101       C  0.83567236  0.85425610  0.25775574    -0.20700
C3102       C  0.82198717  0.83262133  0.25928755    -0.11500
C3103       C  0.83995847  0.89975275  0.25624121    -0.15700
C3104       C  0.83169043  0.92217141  0.24994512    -0.29600
C3105       C  0.78065564  0.81102328  0.26208159    -0.03800
C3106       C  0.78870824  0.78765248  0.26194925    -0.40400
H3107       H  0.76585652  0.85791148  0.26629895     0.12400
H3108       H  0.78969303  0.89549403  0.26387965     0.12000
H3109       H  0.85517786  0.85292203  0.25521012     0.11500
H3110       H  0.83154254  0.81547055  0.25758792     0.11700
H3111       H  0.85947220  0.89730666  0.25841141     0.14500
H3112       H  0.81246581  0.92504569  0.24650895     0.13200
H3113       H  0.76111971  0.81392050  0.26079452     0.10900
H3114       H  0.80798508  0.78373978  0.26300601     0.12900
C3115       C  0.79136863  0.16057445  0.23237351     0.19000
C3116       C  0.78034380  0.13733299  0.23248510    -0.19100
C3117       C  0.79438790  0.11594892  0.23217117    -0.11400
C3118       C  0.81995633  0.11730100  0.23182200     0.21300
C3119       C  0.83095831  0.14047151  0.23058932    -0.20700
C3120       C  0.81694744  0.16184607  0.23100745    -0.11500
C3121       C  0.83591376  0.09526173  0.23306450    -0.15700
C3122       C  0.82907592  0.07347742  0.24240477    -0.29600
C3123       C  0.77552761  0.18261397  0.23537788    -0.03800
C3124       C  0.78324962  0.20606153  0.23460939    -0.40400
H3125       H  0.76069906  0.13568048  0.23328798     0.12400
H3126       H  0.78512716  0.09849848  0.23230451     0.12000
H3127       H  0.85061203  0.14209145  0.23006032     0.11500
H3128       H  0.82645392  0.17913549  0.23093963     0.11700
H3129       H  0.85477337  0.09765239  0.22756200     0.14500
H3130       H  0.81062877  0.07072009  0.24887750     0.13200
H3131       H  0.75652068  0.17932233  0.23981231     0.10900
H3132       H  0.80213058  0.21037560  0.23095703     0.12900
C3133       C  0.95993186  0.00544583  0.41183405     0.19000
C3134       C  0.97194150  0.00488329  0.38915754    -0.19100
C3135       C  0.95888586  0.00478107  0.36708720    -0.11400
C3136       C  0.93325843  0.00512607  0.36704931     0.21300
C3137       C  0.92125561  0.00574482  0.38972992    -0.20700
C3138       C  0.93430217  0.00581167  0.41179176    -0.11500
C3139       C  0.91815816  0.00500710  0.34415176    -0.15700
C3140       C  0.92640603  0.00042315  0.32129310    -0.29600
C3141       C  0.97498065  0.00488601  0.43473254    -0.03800
C3142       C  0.96642884  0.00677188  0.45780130    -0.40400
H3143       H  0.99164704  0.00453057  0.38847469     0.12400
H3144       H  0.96904329  0.00462093  0.35023335     0.12000
H3145       H  0.90154806  0.00597700  0.39042609     0.11500
H3146       H  0.92409709  0.00591139  0.42861070     0.11700
H3147       H  0.89873337  0.00796969  0.34648303     0.14500
H3148       H  0.94547488  0.99646772  0.31816958     0.13200
H3149       H  0.99445979  0.00214487  0.43251135     0.10900
H3150       H  0.94720725  0.00926999  0.46133078     0.12900
C3151       C  0.13288827  0.31568435  0.96939732     0.19000
C3152       C  0.11016648  0.32724058  0.96767918    -0.19100
C3153       C  0.08947634  0.31398981  0.96116635    -0.11400
C3154       C  0.09116009  0.28887283  0.95616105     0.21300
C3155       C  0.11329977  0.27682308  0.96003102    -0.20700
C3156       C  0.13410010  0.29009611  0.96649282    -0.11500
C3157       C  0.07118182  0.27579157  0.94365211    -0.15700
C3158       C  0.05936641  0.28664557  0.92520225    -0.29600
C3159       C  0.15463157  0.33137678  0.97309289    -0.03800
C3160       C  0.17760362  0.32320380  0.97492674    -0.40400
H3161       H  0.10856432  0.34680084  0.97037550     0.12400
H3162       H  0.07238540  0.32358245  0.95893314     0.12000
H3163       H  0.11487959  0.25739808  0.95644711     0.11500
H3164       H  0.15101651  0.28023843  0.96812763     0.11700
H3165       H  0.06915996  0.25622259  0.94647751     0.14500
H3166       H  0.06349895  0.30550496  0.92055709     0.13200
H3167       H  0.15151644  0.35096211  0.97462354     0.10900
H3168       H  0.18184573  0.30390032  0.97502709     0.12900
C3169       C  0.08789977  0.10817365  0.80306601     0.19000
C3170       C  0.10362599  0.12662351  0.81152169    -0.19100
C3171       C  0.09446879  0.14914066  0.81908791    -0.11400
C3172       C  0.06944375  0.15373394  0.81805945     0.21300
C3173       C  0.05368362  0.13556397  0.80900106    -0.20700
C3174       C  0.06280185  0.11294787  0.80164112    -0.11500
C3175       C  0.05987229  0.17584852  0.83003263    -0.15700
C3176       C  0.03838701  0.18582121  0.82411943    -0.29600
C3177       C  0.09862648  0.08429761  0.79638845    -0.03800
C3178       C  0.08711408  0.06666720  0.78362193    -0.40400
H3179       H  0.12305781  0.12344946  0.81272433     0.12400
H3180       H  0.10686882  0.16278643  0.82633358     0.12000
H3181       H  0.03417442  0.13824013  0.80883220     0.11500
H3182       H  0.04996309  0.09916687  0.79572267     0.11700
H3183       H  0.06994526  0.18289927  0.84564584     0.14500
H3184       H  0.02885723  0.18034083  0.80761267     0.13200
H3185       H  0.11776464  0.08183084  0.80088629     0.10900
H3186       H  0.06840775  0.06874344  0.77766241     0.12900
C3187       C  0.96236661  0.36062103  0.82116258     0.19000
C3188       C  0.96085195  0.38261326  0.83431097    -0.19100
C3189       C  0.95687554  0.40462189  0.82226725    -0.11400
C3190       C  0.95438614  0.40495800  0.79682048     0.21300
C3191       C  0.95775128  0.38342022  0.78342841    -0.20700
C3192       C  0.96147631  0.36128918  0.79548149    -0.11500
C3193       C  0.94342556  0.42614210  0.78463525    -0.15700
C3194       C  0.92201445  0.43437517  0.79287960    -0.29600
C3195       C  0.96420764  0.33763233  0.83520816    -0.03800
C3196       C  0.97039583  0.31591427  0.82562479    -0.40400
H3197       H  0.96185240  0.38266588  0.85405513     0.12400
H3198       H  0.95435182  0.42117177  0.83285849     0.12000
H3199       H  0.95558438  0.38341036  0.76377690     0.11500
H3200       H  0.96243757  0.34485186  0.78458448     0.11700
H3201       H  0.94993693  0.43147515  0.76670832     0.14500
H3202       H  0.91434677  0.42678277  0.80950851     0.13200
H3203       H  0.96204788  0.33905165  0.85489056     0.10900
H3204       H  0.97445585  0.31389262  0.80639725     0.12900
C3205       C  0.87013076  0.17907067  0.97350845     0.19000
C3206       C  0.89117183  0.16636925  0.96658566    -0.19100
C3207       C  0.91133560  0.17892072  0.95776519    -0.11400
C3208       C  0.91079931  0.20446956  0.95577136     0.21300
C3209       C  0.89078086  0.21742758  0.96484190    -0.20700
C3210       C  0.87045138  0.20483196  0.97359955    -0.11500
C3211       C  0.92961462  0.21744832  0.94174326    -0.15700
C3212       C  0.93721826  0.20825846  0.92035634    -0.29600
C3213       C  0.84829349  0.16444416  0.97949480    -0.03800
C3214       C  0.82563013  0.17341707  0.98135180    -0.40400
H3215       H  0.89163360  0.14656697  0.96691921     0.12400
H3216       H  0.92694827  0.16861307  0.95151779     0.12000
H3217       H  0.89027865  0.23719644  0.96377610     0.11500
H3218       H  0.85499845  0.21536317  0.97971768     0.11700
H3219       H  0.93484134  0.23583062  0.94725937     0.14500
H3220       H  0.93009729  0.19086939  0.91383301     0.13200
H3221       H  0.85092318  0.14485180  0.98168878     0.10900
H3222       H  0.82189531  0.19280606  0.97992640     0.12900
C3223       C  0.16692430  0.24973735  0.79597278     0.19000
C3224       C  0.14679474  0.26488276  0.79149561    -0.19100
C3225       C  0.12504927  0.26189001  0.80443077    -0.11400
C3226       C  0.12287756  0.24362811  0.82235550     0.21300
C3227       C  0.14307961  0.22861947  0.82703927    -0.20700
C3228       C  0.16483095  0.23151693  0.81396327    -0.11500
C3229       C  0.10047754  0.24093750  0.83753676    -0.15700
C3230       C  0.07821305  0.24802220  0.82999053    -0.29600
C3231       C  0.18993351  0.25444937  0.78230577    -0.03800
C3232       C  0.20824814  0.23824429  0.77983069    -0.40400
H3233       H  0.14795434  0.27929929  0.77802320     0.12400
H3234       H  0.11028944  0.27443218  0.80081183     0.12000
H3235       H  0.14207701  0.21467939  0.84100902     0.11500
H3236       H  0.18006494  0.21988786  0.81849840     0.11700
H3237       H  0.10244336  0.23296623  0.85556993     0.14500
H3238       H  0.07575249  0.25486588  0.81159606     0.13200
H3239       H  0.19159096  0.27194043  0.77306220     0.10900
H3240       H  0.20635612  0.21986393  0.78696764     0.12900
C3241       C  0.99441227  0.41463341  0.95373554     0.19000
C3242       C  0.98144490  0.39342943  0.95999321    -0.19100
C3243       C  0.98511444  0.37146551  0.94736293    -0.11400
C3244       C  0.00180685  0.37021977  0.92792752     0.21300
C3245       C  0.01451735  0.39155778  0.92144678    -0.20700
C3246       C  0.01097518  0.41349883  0.93422436    -0.11500
C3247       C  0.00503792  0.34766142  0.91286623    -0.15700
C3248       C  0.99893556  0.32499484  0.92036754    -0.29600
C3249       C  0.98954099  0.43763550  0.96747594    -0.03800
C3250       C  0.00572847  0.45600528  0.96986662    -0.40400
H3251       H  0.96833083  0.39386640  0.97473258     0.12400
H3252       H  0.97427561  0.35579632  0.95248353     0.12000
H3253       H  0.02712750  0.39129902  0.90627540     0.11500
H3254       H  0.02078815  0.42961710  0.92838627     0.11700
H3255       H  0.01232577  0.34994201  0.89458717     0.14500
H3256       H  0.99248054  0.32205403  0.93881411     0.13200
H3257       H  0.97243120  0.43895768  0.97733347     0.10900
H3258       H  0.02382929  0.45437250  0.96215350     0.12900
C3259       C  0.83516290  0.25533252  0.78936874     0.19000
C3260       C  0.85809273  0.25356139  0.77816494    -0.19100
C3261       C  0.87959783  0.25447659  0.79190673    -0.11400
C3262       C  0.87878072  0.25698036  0.81745881     0.21300
C3263       C  0.85584206  0.25916195  0.82865561    -0.20700
C3264       C  0.83429284  0.25827110  0.81487614    -0.11500
C3265       C  0.90112756  0.25719182  0.83317608    -0.15700
C3266       C  0.92362159  0.25061248  0.82564595    -0.29600
C3267       C  0.81297564  0.25307420  0.77365744    -0.03800
C3268       C  0.78985861  0.25750362  0.78074162    -0.40400
H3269       H  0.85941528  0.25137507  0.75856475     0.12400
H3270       H  0.89667221  0.25328497  0.78226040     0.12000
H3271       H  0.85454305  0.26116422  0.84827191     0.11500
H3272       H  0.81714556  0.25940934  0.82443221     0.11700
H3273       H  0.89866947  0.26194573  0.85227196     0.14500
H3274       H  0.92674004  0.24497796  0.80696807     0.13200
H3275       H  0.81579891  0.24717466  0.75491642     0.10900
H3276       H  0.78575043  0.26289125  0.79930656     0.12900
C3277       C  0.91414770  0.03836698  0.01132275     0.19000
C3278       C  0.90462457  0.05191961  0.03094178    -0.19100
C3279       C  0.88064923  0.06087171  0.03041866    -0.11400
C3280       C  0.86539748  0.05647971  0.01012161     0.21300
C3281       C  0.87476386  0.04243921  0.99079510    -0.20700
C3282       C  0.89866238  0.03345371  0.99135244    -0.11500
C3283       C  0.83995510  0.06639920  0.00786585    -0.15700
C3284       C  0.83067214  0.08424986  0.02212744    -0.29600
C3285       C  0.93980451  0.02895667  0.01287839    -0.03800
C3286       C  0.95215326  0.01933629  0.99381300    -0.40400
H3287       H  0.91582273  0.05566128  0.04681411     0.12400
H3288       H  0.87428784  0.07102601  0.04605576     0.12000
H3289       H  0.86354984  0.03847796  0.97501559     0.11500
H3290       H  0.90460820  0.02242055  0.97611908     0.11700
H3291       H  0.82916979  0.06028013  0.99239849     0.14500
H3292       H  0.84157799  0.09196189  0.03668870     0.13200
H3293       H  0.94897070  0.03041830  0.03038276     0.10900
H3294       H  0.94408532  0.02004573  0.97578474     0.12900
C3295       C  0.06951701  0.99954554  0.86283442     0.19000
C3296       C  0.07950194  0.00488160  0.88587184    -0.19100
C3297       C  0.06521473  0.00413554  0.90700072    -0.11400
C3298       C  0.04033693  0.99796991  0.90569548     0.21300
C3299       C  0.03031116  0.99272560  0.88264351    -0.20700
C3300       C  0.04460772  0.99347867  0.86149253    -0.11500
C3301       C  0.02421689  0.99623713  0.92763474    -0.15700
C3302       C  0.03091637  0.00178401  0.95069575    -0.29600
C3303       C  0.08605144  0.00000790  0.84114647    -0.03800
C3304       C  0.07919385  0.99569643  0.81786237    -0.40400
H3305       H  0.09860865  0.00952310  0.88760366     0.12400
H3306       H  0.07400508  0.00819195  0.92417032     0.12000
H3307       H  0.01124985  0.98785988  0.88096400     0.11500
H3308       H  0.03593400  0.98906594  0.84435449     0.11700
H3309       H  0.00570804  0.98974367  0.92473481     0.14500
H3310       H  0.04933109  0.00747127  0.95493220     0.13200
H3311       H  0.10519383  0.00366324  0.84469802     0.10900
H3312       H  0.06036426  0.99189342  0.81334868     0.12900
C3313       C  0.01895794  0.86881591  0.06669256     0.19000
C3314       C  0.01265393  0.89154795  0.07689448    -0.19100
C3315       C  0.01030610  0.91240038  0.06225031    -0.11400
C3316       C  0.01443404  0.91106277  0.03692576     0.21300
C3317       C  0.02117965  0.88845372  0.02681480    -0.20700
C3318       C  0.02359443  0.86763837  0.04145150    -0.11500
C3319       C  0.01075338  0.93228067  0.02021676    -0.15700
C3320       C  0.01016108  0.95585517  0.02745373    -0.29600
C3321       C  0.01977731  0.84684150  0.08288203    -0.03800
C3322       C  0.01813137  0.82361864  0.07465694    -0.40400
H3323       H  0.00890707  0.89307084  0.09623393     0.12400
H3324       H  0.00454293  0.92923812  0.07082644     0.12000
H3325       H  0.02455646  0.88685408  0.00741314     0.11500
H3326       H  0.02914109  0.85077984  0.03280236     0.11700
H3327       H  0.00844288  0.92831635  0.00091186     0.14500
H3328       H  0.01276525  0.96048627  0.04647058     0.13200
H3329       H  0.01946262  0.84998447  0.10246818     0.10900
H3330       H  0.01664648  0.81995336  0.05528202     0.12900
C3331       C  0.12886766  0.92539752  0.99232784     0.19000
C3332       C  0.10773114  0.91696028  0.98046884    -0.19100
C3333       C  0.08554779  0.92940696  0.98298289    -0.11400
C3334       C  0.08399701  0.95050478  0.99765990     0.21300
C3335       C  0.10500951  0.95873974  0.00971745    -0.20700
C3336       C  0.12716446  0.94646100  0.00706879    -0.11500
C3337       C  0.06072768  0.96385828  0.00171587    -0.15700
C3338       C  0.04247358  0.96458104  0.98533172    -0.29600
C3339       C  0.15178290  0.91080870  0.99056104    -0.03800
C3340       C  0.17399666  0.91990813  0.99591826    -0.40400
H3341       H  0.10833589  0.90054924  0.96940493     0.12400
H3342       H  0.06956160  0.92210138  0.97395708     0.12000
H3343       H  0.10425612  0.97472452  0.02138544     0.11500
H3344       H  0.14262788  0.95317900  0.01731757     0.11700
H3345       H  0.05905863  0.97471517  0.01825977     0.14500
H3346       H  0.04467598  0.95579803  0.96769684     0.13200
H3347       H  0.15016805  0.89167157  0.98542252     0.10900
H3348       H  0.17616361  0.93913506  0.00026666     0.12900
C3349       C  0.93186541  0.98789810  0.12374367     0.19000
C3350       C  0.92046190  0.98646257  0.10079022    -0.19100
C3351       C  0.93408629  0.98686768  0.07917722    -0.11400
C3352       C  0.95965911  0.98844412  0.07996814     0.21300
C3353       C  0.97110772  0.98907614  0.10294070    -0.20700
C3354       C  0.95747334  0.98870983  0.12455124    -0.11500
C3355       C  0.97505889  0.99078894  0.05759962    -0.15700
C3356       C  0.96751622  0.98637231  0.03452497    -0.29600
C3357       C  0.91630510  0.98872372  0.14614055    -0.03800
C3358       C  0.92380395  0.99709233  0.16813307    -0.40400
H3359       H  0.90078929  0.98566737  0.09953000     0.12400
H3360       H  0.92435491  0.98666335  0.06203444     0.12000
H3361       H  0.99076657  0.99008828  0.10419661     0.11500
H3362       H  0.96713572  0.98905528  0.14174101     0.11700
H3363       H  0.99373404  0.99685790  0.06024151     0.14500
H3364       H  0.94897870  0.98070151  0.03079539     0.13200
H3365       H  0.89732123  0.98348517  0.14402171     0.10900
H3366       H  0.94237920  0.00334116  0.17065024     0.12900
C3367       C  0.98682291  0.07963971  0.95113371     0.19000
C3368       C  0.98554497  0.10252735  0.96281932    -0.19100
C3369       C  0.98660891  0.12436957  0.94951103    -0.11400
C3370       C  0.98909136  0.12396543  0.92395306     0.21300
C3371       C  0.98984568  0.10109994  0.91218080    -0.20700
C3372       C  0.98877166  0.07924007  0.92548747    -0.11500
C3373       C  0.99066030  0.14670260  0.90881281    -0.15700
C3374       C  0.99550154  0.16929792  0.91766294    -0.29600
C3375       C  0.98690301  0.05705532  0.96663211    -0.03800
C3376       C  0.98934580  0.03394076  0.95824302    -0.40400
H3377       H  0.98387597  0.10356407  0.98249225     0.12400
H3378       H  0.98527666  0.14140501  0.95942160     0.12000
H3379       H  0.99154579  0.10011015  0.89251362     0.11500
H3380       H  0.98968339  0.06227663  0.91542486     0.11700
H3381       H  0.98872787  0.14451215  0.88918320     0.14500
H3382       H  0.99870460  0.17204799  0.93699104     0.13200
H3383       H  0.98624932  0.05969578  0.98629015     0.10900
H3384       H  0.99092609  0.03054792  0.93888977     0.12900
loop_ 
_geom_bond_atom_site_label_1 
_geom_bond_atom_site_label_2 
_geom_bond_distance 
_geom_bond_site_symmetry_2 
_ccdc_geom_bond_type 
C1            C2   1.425       .  A
C1            C6   1.429   1_546  A
C1         C3286   1.506       .  S
C2            C3   1.420   1_645  A
C2         C3376   1.501       .  S
C3            C4   1.416       .  A
C3         C3302   1.496   1_565  S
C4            C5   1.421   1_556  A
C4         C3338   1.497       .  S
C5            C6   1.425   1_455  A
C5         C3320   1.498       .  S
C6         C3356   1.496       .  S
O7           C15   1.274       .  A
O7          Co27   2.015       .  S
O8           C16   1.275       .  A
O8          Co28   2.029       .  S
O9           C17   1.262       .  A
O9          Co29   1.975       .  S
O10          C18   1.259       .  A
O10         Co30   1.965       .  S
O11          C17   1.269       .  A
O11         Co28   2.028       .  S
O12          C18   1.272       .  A
O12         Co27   2.039       .  S
O13          C16   1.257       .  A
O13         Co30   1.951   1_655  S
O14          C15   1.261       .  A
O14         Co29   1.958   1_455  S
C15        C3176   1.465       .  S
C16        C3196   1.465       .  S
C17        C3266   1.485       .  S
C18        C3230   1.482       .  S
O19          C32   1.263       .  A
O19         Co27   1.959       .  S
O20          C33   1.261       .  A
O20         Co28   1.952       .  S
O21          C34   1.271       .  A
O21         Co29   2.035       .  S
O22          C35   1.271   1_455  A
O22         Co30   2.038       .  S
O23          C35   1.260       .  A
O23         Co28   1.969       .  S
O24          C34   1.263   1_455  A
O24         Co27   1.977       .  S
O25          C32   1.271       .  A
O25         Co30   2.014       .  S
O26          C33   1.272       .  A
O26         Co29   2.020       .  S
Co27         O31   2.107   1_455  S
Co28         O31   2.107       .  S
Co29         O31   2.104       .  S
Co30         O31   2.094   1_455  S
C32        C3158   1.461       .  S
C33        C3212   1.462       .  S
C34        C3374   1.487       .  S
C35        C3248   1.482       .  S
O36          C44   1.268       .  A
O36         Co56   2.010       .  S
O37          C45   1.271       .  A
O37         Co57   2.018       .  S
O38          C46   1.268       .  A
O38         Co58   1.981       .  S
O39          C47   1.265       .  A
O39         Co59   1.977       .  S
O40          C46   1.275       .  A
O40         Co57   2.036       .  S
O41          C47   1.273       .  A
O41         Co56   2.031       .  S
O42          C45   1.261       .  A
O42         Co59   1.963   1_565  S
O43          C44   1.264       .  A
O43         Co58   1.966   1_545  S
C44        C3050   1.464       .  S
C45        C3068   1.465       .  S
C46        C3104   1.490       .  S
C47        C3122   1.485       .  S
O48          C61   1.263       .  A
O48         Co56   1.960       .  S
O49          C62   1.266       .  A
O49         Co57   1.976       .  S
O50          C63   1.276       .  A
O50         Co58   2.043       .  S
O51          C64   1.274   1_545  A
O51         Co59   2.039       .  S
O52          C64   1.268       .  A
O52         Co57   1.984       .  S
O53          C63   1.265   1_545  A
O53         Co56   1.973       .  S
O54          C61   1.269       .  A
O54         Co59   2.010       .  S
O55          C62   1.266       .  A
O55         Co58   2.000       .  S
Co56         O60   2.105   1_545  S
Co57         O60   2.110       .  S
Co58         O60   2.106       .  S
Co59         O60   2.101   1_545  S
C61        C3032   1.461       .  S
C62        C3086   1.464       .  S
C63        C3358   1.487       .  S
C64        C3140   1.493   1_565  S
C65          C66   1.426       .  A
C65          C70   1.426   1_545  A
C65        C2960   1.502       .  S
C66          C67   1.426   1_455  A
C66        C2998   1.510   1_455  S
C67          C68   1.428   1_545  A
C67        C3142   1.498       .  S
C68          C69   1.422       .  A
C68        C2944   1.500       .  S
C69          C70   1.420   1_655  A
C69        C3014   1.513       .  S
C70        C2978   1.492       .  S
O71          C79   1.272       .  A
O71         Co91   2.018       .  S
O72          C80   1.272       .  A
O72         Co92   2.014       .  S
O73          C81   1.259       .  A
O73         Co93   1.966       .  S
O74          C82   1.263       .  A
O74         Co94   1.974       .  S
O75          C81   1.273       .  A
O75         Co92   2.044       .  S
O76          C82   1.274       .  A
O76         Co91   2.045       .  S
O77          C80   1.261       .  A
O77         Co94   1.965   1_655  S
O78          C79   1.258       .  A
O78         Co93   1.958   1_455  S
C79        C2818   1.463       .  S
C80        C2834   1.461       .  S
C81        C2926   1.483       .  S
C82        C2888   1.492       .  S
O83          C96   1.263       .  A
O83         Co91   1.958       .  S
O84          C97   1.261       .  A
O84         Co92   1.965       .  S
O85          C98   1.272       .  A
O85         Co93   2.038       .  S
O86          C99   1.272       .  A
O86         Co94   2.034       .  S
O87          C99   1.267   1_655  A
O87         Co92   1.985       .  S
O88          C98   1.265   1_455  A
O88         Co91   1.983       .  S
O89          C96   1.269       .  A
O89         Co94   2.010       .  S
O90          C97   1.273       .  A
O90         Co93   2.024       .  S
Co91         O95   2.111       .  S
Co92         O95   2.109   1_655  S
Co93         O95   2.098   1_655  S
Co94         O95   2.097       .  S
C96        C2854   1.459       .  S
C97        C2870   1.468       .  S
C98        C3016   1.494       .  S
C99        C2906   1.489       .  S
O100        C108   1.270       .  A
O100       Co120   2.007       .  S
O101        C109   1.269       .  A
O101       Co121   2.001       .  S
O102        C110   1.263       .  A
O102       Co122   1.971       .  S
O103        C111   1.261       .  A
O103       Co123   1.966       .  S
O104        C110   1.274       .  A
O104       Co121   2.046       .  S
O105        C111   1.275       .  A
O105       Co120   2.049       .  S
O106        C109   1.259       .  A
O106       Co123   1.955   1_556  S
O107        C108   1.258       .  A
O107       Co122   1.960   1_554  S
C108       C2692   1.459       .  S
C109       C2710   1.454       .  S
C110       C2764   1.485       .  S
C111       C2780   1.485       .  S
O112        C125   1.256       .  A
O112       Co120   1.952       .  S
O113        C126   1.261       .  A
O113       Co121   1.967       .  S
O114        C127   1.273       .  A
O114       Co122   2.041       .  S
O115        C128   1.273       .  A
O115       Co123   2.030       .  S
O116        C128   1.266   1_556  A
O116       Co121   1.977       .  S
O117        C127   1.261   1_554  A
O117       Co120   1.964       .  S
O118        C125   1.271       .  A
O118       Co123   2.015       .  S
O119        C126   1.271       .  A
O119       Co122   2.011       .  S
Co120       O124   2.092       .  S
Co121       O124   2.100   1_556  S
Co122       O124   2.098   1_556  S
Co123       O124   2.097       .  S
C125       C2726   1.458       .  S
C126       C2744   1.461       .  S
C127       C3340   1.480       .  S
C128       C2798   1.485       .  S
O129        C137   1.259       .  A
O129       Co149   1.958   1_655  S
O130        C138   1.260   1_655  A
O130       Co150   1.962       .  S
O131        C139   1.269       .  A
O131       Co151   2.022       .  S
O132        C140   1.273       .  A
O132       Co152   2.042       .  S
O133        C139   1.264       .  A
O133       Co150   1.977       .  S
O134        C140   1.262       .  A
O134       Co149   1.975       .  S
O135        C138   1.273       .  A
O135       Co152   2.017       .  S
O136        C137   1.273       .  A
O136       Co151   2.027       .  S
C137       C3088   1.467       .  S
C138       C2620   1.469       .  S
C139       C2654   1.482       .  S
C140       C2672   1.491       .  S
O141        C154   1.271       .  A
O141       Co149   2.015       .  S
O142        C155   1.274       .  A
O142       Co150   2.020       .  S
O143        C156   1.258       .  A
O143       Co151   1.962   1_455  S
O144        C157   1.260   1_455  A
O144       Co152   1.969       .  S
O145        C157   1.272       .  A
O145       Co150   2.041       .  S
O146        C156   1.273       .  A
O146       Co149   2.047       .  S
O147        C154   1.258       .  A
O147       Co152   1.955       .  S
O148        C155   1.260       .  A
O148       Co151   1.958       .  S
Co149       O153   2.102   1_455  S
Co150       O153   2.104       .  S
Co151       O153   2.102       .  S
Co152       O153   2.100   1_455  S
C154       C2690   1.458       .  S
C155       C2600   1.470       .  S
C156       C3322   1.481       .  S
C157       C2636   1.483       .  S
C158        C159   1.425       .  A
C158        C163   1.421       .  A
C158       C2546   1.505       .  S
C159        C160   1.424       .  A
C159       C2782   1.495       .  S
C160        C161   1.423       .  A
C160       C2674   1.502       .  S
C161        C162   1.421       .  A
C161       C2564   1.500       .  S
C162        C163   1.420       .  A
C162       C2582   1.493       .  S
C163       C2528   1.495       .  S
O164        C172   1.256       .  A
O164       Co184   1.953       .  S
O165        C173   1.259       .  A
O165       Co185   1.958       .  S
O166        C174   1.272       .  A
O166       Co186   2.029       .  S
O167        C175   1.273       .  A
O167       Co187   2.041       .  S
O168        C174   1.264       .  A
O168       Co185   1.975       .  S
O169        C175   1.259       .  A
O169       Co184   1.964       .  S
O170        C173   1.271       .  A
O170       Co187   2.018       .  S
O171        C172   1.272       .  A
O171       Co186   2.021       .  S
C172       C2852   1.465       .  S
C173       C2458   1.460       .  S
C174       C2510   1.483       .  S
C175       C2584   1.480       .  S
O176        C189   1.271       .  A
O176       Co184   2.018       .  S
O177        C190   1.266       .  A
O177       Co185   1.998       .  S
O178        C191   1.261       .  A
O178       Co186   1.969       .  S
O179        C192   1.262       .  A
O179       Co187   1.965       .  S
O180        C192   1.275       .  A
O180       Co185   2.053       .  S
O181        C191   1.274       .  A
O181       Co184   2.048       .  S
O182        C189   1.257       .  A
O182       Co187   1.957       .  S
O183        C190   1.260       .  A
O183       Co186   1.956       .  S
Co184       O188   2.097       .  S
Co185       O188   2.099       .  S
Co186       O188   2.108       .  S
Co187       O188   2.100       .  S
C189       C2420   1.461       .  S
C190       C2438   1.448       .  S
C191       C2492   1.488       .  S
C192       C2474   1.485       .  S
C193        C194   1.430       .  A
C193        C198   1.426       .  A
C193       C2384   1.509       .  S
C194        C195   1.425       .  A
C194       C2512   1.493       .  S
C195        C196   1.422       .  A
C195       C2890   1.507       .  S
C196        C197   1.418       .  A
C196       C2368   1.492       .  S
C197        C198   1.421       .  A
C197       C2762   1.503       .  S
C198       C2404   1.499       .  S
O199        C207   1.272       .  A
O199       Co219   2.008       .  S
O200        C208   1.275       .  A
O200       Co220   2.019       .  S
O201        C209   1.264       .  A
O201       Co221   1.984       .  S
O202        C210   1.266       .  A
O202       Co222   1.980       .  S
O203        C209   1.268       .  A
O203       Co220   2.014       .  S
O204        C210   1.269       .  A
O204       Co219   2.027       .  S
O205        C208   1.261       .  A
O205       Co222   1.963       .  S
O206        C207   1.260       .  A
O206       Co221   1.955       .  S
C207       C2708   1.453       .  S
C208       C2276   1.470       .  S
C209       C2314   1.481       .  S
C210       C2348   1.482       .  S
O211        C224   1.259       .  A
O211       Co219   1.957       .  S
O212        C225   1.263       .  A
O212       Co220   1.962       .  S
O213        C226   1.273       .  A
O213       Co221   2.046       .  S
O214        C227   1.272       .  A
O214       Co222   2.041       .  S
O215        C227   1.260       .  A
O215       Co220   1.966       .  S
O216        C226   1.260       .  A
O216       Co219   1.964       .  S
O217        C224   1.273       .  A
O217       Co222   2.015       .  S
O218        C225   1.272       .  A
O218       Co221   2.010       .  S
Co219       O223   2.088       .  S
Co220       O223   2.089       .  S
Co221       O223   2.103       .  S
Co222       O223   2.106       .  S
C224       C2258   1.457       .  S
C225       C2294   1.463       .  S
C226       C2402   1.481       .  S
C227       C2330   1.482       .  S
C228        C229   1.422       .  A
C228        C233   1.421       .  A
C228       C2186   1.505       .  S
C229        C230   1.425       .  A
C229       C3268   1.496       .  S
C230        C231   1.424       .  A
C230       C2242   1.501       .  S
C231        C232   1.425       .  A
C231       C2222   1.512       .  S
C232        C233   1.425       .  A
C232       C2204   1.492       .  S
C233       C2170   1.502       .  S
O234        C242   1.274       .  A
O234       Co254   2.019       .  S
O235        C243   1.275       .  A
O235       Co255   2.022       .  S
O236        C244   1.265       .  A
O236       Co256   1.982       .  S
O237        C245   1.265       .  A
O237       Co257   1.981       .  S
O238        C244   1.268       .  A
O238       Co255   2.017       .  S
O239        C245   1.268       .  A
O239       Co254   2.024       .  S
O240        C243   1.261       .  A
O240       Co257   1.958       .  S
O241        C242   1.266       .  A
O241       Co256   1.955       .  S
C242       C3194   1.459       .  S
C243       C2836   1.463       .  S
C244       C2114   1.486       .  S
C245       C2132   1.482       .  S
O246        C259   1.265       .  A
O246       Co254   1.970       .  S
O247        C260   1.265       .  A
O247       Co255   1.954       .  S
O248        C261   1.268       .  A
O248       Co256   2.020       .  S
O249        C262   1.272       .  A
O249       Co257   2.041       .  S
O250        C262   1.261       .  A
O250       Co255   1.971       .  S
O251        C261   1.266       .  A
O251       Co254   1.985       .  S
O252        C259   1.274       .  A
O252       Co257   2.012       .  S
O253        C260   1.270       .  A
O253       Co256   2.006       .  S
Co254       O258   2.101       .  S
Co255       O258   2.100       .  S
Co256       O258   2.100       .  S
Co257       O258   2.101       .  S
C259       C2096   1.462       .  S
C260       C2078   1.450       .  S
C261       C2240   1.482       .  S
C262       C2150   1.489       .  S
O263        C271   1.262       .  A
O263       Co283   1.963   1_655  S
O264        C272   1.265       .  A
O264       Co284   1.962   1_455  S
O265        C273   1.269       .  A
O265       Co285   2.019       .  S
O266        C274   1.272       .  A
O266       Co286   2.035       .  S
O267        C273   1.266       .  A
O267       Co284   1.984       .  S
O268        C274   1.265       .  A
O268       Co283   1.982       .  S
O269        C272   1.272       .  A
O269       Co286   2.011       .  S
O270        C271   1.275       .  A
O270       Co285   2.019       .  S
C271       C3034   1.471       .  S
C272       C2008   1.460       .  S
C273       C2042   1.484       .  S
C274       C2060   1.492       .  S
O275        C288   1.269       .  A
O275       Co283   2.011       .  S
O276        C289   1.274       .  A
O276       Co284   2.012       .  S
O277        C290   1.268       .  A
O277       Co285   1.987   1_455  S
O278        C291   1.264   1_455  A
O278       Co286   1.981       .  S
O279        C291   1.271       .  A
O279       Co284   2.032       .  S
O280        C290   1.272       .  A
O280       Co283   2.034       .  S
O281        C288   1.265       .  A
O281       Co286   1.962       .  S
O282        C289   1.267       .  A
O282       Co285   1.976       .  S
Co283       O287   2.099       .  S
Co284       O287   2.110   1_655  S
Co285       O287   2.113   1_655  S
Co286       O287   2.105       .  S
C288       C1988   1.460       .  S
C289       C1970   1.478       .  S
C290       C2996   1.490       .  S
C291       C2024   1.491       .  S
C292        C293   1.421       .  A
C292        C297   1.427       .  A
C292       C1882   1.505       .  S
C293        C294   1.423       .  A
C293       C2062   1.504       .  S
C294        C295   1.427       .  A
C294       C1898   1.499       .  S
C295        C296   1.426       .  A
C295       C1934   1.506       .  S
C296        C297   1.431       .  A
C296       C1916   1.514       .  S
C297       C1952   1.499       .  S
O298        C306   1.255       .  A
O298       Co318   1.954   1_556  S
O299        C307   1.258       .  A
O299       Co319   1.959   1_554  S
O300        C308   1.273       .  A
O300       Co320   2.031       .  S
O301        C309   1.275       .  A
O301       Co321   2.050       .  S
O302        C308   1.262       .  A
O302       Co319   1.970       .  S
O303        C309   1.263       .  A
O303       Co318   1.971       .  S
O304        C307   1.270       .  A
O304       Co321   2.012       .  S
O305        C306   1.272       .  A
O305       Co320   2.028       .  S
C306       C3160   1.465       .  S
C307       C1810   1.458       .  S
C308       C1864   1.483       .  S
C309       C1954   1.487       .  S
O310        C323   1.269       .  A
O310       Co318   2.003       .  S
O311        C324   1.269       .  A
O311       Co319   2.011       .  S
O312        C325   1.263   1_556  A
O312       Co320   1.972       .  S
O313        C326   1.262   1_554  A
O313       Co321   1.969       .  S
O314        C326   1.275       .  A
O314       Co319   2.048       .  S
O315        C325   1.276       .  A
O315       Co318   2.051       .  S
O316        C323   1.257       .  A
O316       Co321   1.958       .  S
O317        C324   1.263       .  A
O317       Co320   1.965       .  S
Co318       O322   2.096   1_554  S
Co319       O322   2.099       .  S
Co320       O322   2.110       .  S
Co321       O322   2.101   1_554  S
C323       C1790   1.455       .  S
C324       C1772   1.464       .  S
C325       C1826   1.490       .  S
C326       C1844   1.486       .  S
C327        C328   1.421       .  A
C327        C332   1.420       .  A
C327       C1862   1.497       .  S
C328        C329   1.419       .  A
C328       C3232   1.498       .  S
C329        C330   1.421       .  A
C329       C1720   1.491       .  S
C330        C331   1.422       .  A
C330       C1700   1.502       .  S
C331        C332   1.418       .  A
C331       C1754   1.494       .  S
C332       C1736   1.494       .  S
O333        C341   1.273       .  A
O333       Co353   2.011       .  S
O334        C342   1.276       .  A
O334       Co354   2.024       .  S
O335        C343   1.266       .  A
O335       Co355   1.988       .  S
O336        C344   1.264       .  A
O336       Co356   1.980       .  S
O337        C343   1.268       .  A
O337       Co354   2.017       .  S
O338        C344   1.267       .  A
O338       Co353   2.022       .  S
O339        C342   1.260       .  A
O339       Co356   1.957       .  S
O340        C341   1.265       .  A
O340       Co355   1.958       .  S
C341       C1592   1.455       .  S
C342       C1628   1.460       .  S
C343       C1684   1.491       .  S
C344       C1664   1.481       .  S
O345        C358   1.260       .  A
O345       Co353   1.954       .  S
O346        C359   1.260       .  A
O346       Co354   1.951       .  S
O347        C360   1.271       .  A
O347       Co355   2.042       .  S
O348        C361   1.269       .  A
O348       Co356   2.042       .  S
O349        C361   1.256       .  A
O349       Co354   1.960       .  S
O350        C360   1.258       .  A
O350       Co353   1.963       .  S
O351        C358   1.276       .  A
O351       Co356   2.022       .  S
O352        C359   1.273       .  A
O352       Co355   2.016       .  S
Co353       O357   2.087       .  S
Co354       O357   2.088       .  S
Co355       O357   2.114       .  S
Co356       O357   2.107       .  S
C358       C1646   1.457       .  S
C359       C1610   1.453       .  S
C360       C2206   1.480       .  S
C361       C1756   1.478       .  S
O362        C370   1.261   1_545  A
O362       Co382   1.961       .  S
O363        C371   1.262       .  A
O363       Co383   1.958   1_545  S
O364        C372   1.272       .  A
O364       Co384   2.045       .  S
O365        C373   1.270       .  A
O365       Co385   2.028       .  S
O366        C372   1.261       .  A
O366       Co383   1.974       .  S
O367        C373   1.265       .  A
O367       Co382   1.982       .  S
O368        C371   1.273       .  A
O368       Co385   2.015       .  S
O369        C370   1.273       .  A
O369       Co384   2.007       .  S
C370       C2728   1.454       .  S
C371       C1538   1.462       .  S
C372       C2548   1.491       .  S
C373       C1936   1.488       .  S
O374        C387   1.273       .  A
O374       Co382   2.003       .  S
O375        C388   1.276       .  A
O375       Co383   2.019       .  S
O376        C389   1.263       .  A
O376       Co384   1.982   1_545  S
O377        C390   1.265   1_545  A
O377       Co385   1.982       .  S
O378        C390   1.270       .  A
O378       Co383   2.030       .  S
O379        C389   1.270       .  A
O379       Co382   2.033       .  S
O380        C387   1.264       .  A
O380       Co385   1.965       .  S
O381        C388   1.259       .  A
O381       Co384   1.948       .  S
Co382       O386   2.104       .  S
Co383       O386   2.093   1_565  S
Co384       O386   2.109   1_565  S
Co385       O386   2.103       .  S
C387       C1520   1.467       .  S
C388       C1502   1.462       .  S
C389       C1556   1.489       .  S
C390       C1574   1.491       .  S
C391        C392   1.429       .  A
C391        C396   1.428       .  A
C391       C1682   1.504       .  S
C392        C393   1.428   1_545  A
C392       C1450   1.509       .  S
C393        C394   1.426       .  A
C393       C1576   1.505       .  S
C394        C395   1.427       .  A
C394       C1484   1.509       .  S
C395        C396   1.429   1_565  A
C395       C1432   1.503       .  S
C396       C1466   1.508       .  S
O397        C405   1.261       .  A
O397       Co417   1.963       .  S
O398        C406   1.254       .  A
O398       Co418   1.939       .  S
O399        C407   1.274       .  A
O399       Co419   2.052       .  S
O400        C408   1.270       .  A
O400       Co420   2.024       .  S
O401        C407   1.258       .  A
O401       Co418   1.964       .  S
O402        C408   1.270       .  A
O402       Co417   1.995       .  S
O403        C406   1.274       .  A
O403       Co420   2.026       .  S
O404        C405   1.272       .  A
O404       Co419   2.011       .  S
C405       C2456   1.464       .  S
C406       C1376   1.457       .  S
C407       C1396   1.487       .  S
C408       C1486   1.491       .  S
O409        C422   1.272       .  A
O409       Co417   2.000       .  S
O410        C423   1.272       .  A
O410       Co418   2.013       .  S
O411        C424   1.260       .  A
O411       Co419   1.968       .  S
O412        C425   1.261       .  A
O412       Co420   1.970       .  S
O413        C425   1.272       .  A
O413       Co418   2.040       .  S
O414        C424   1.274       .  A
O414       Co417   2.048       .  S
O415        C422   1.262       .  A
O415       Co420   1.970       .  S
O416        C423   1.258       .  A
O416       Co419   1.959       .  S
Co417       O421   2.109       .  S
Co418       O421   2.094       .  S
Co419       O421   2.098       .  S
Co420       O421   2.099       .  S
C422       C1504   1.468       .  S
C423       C1358   1.466       .  S
C424       C2530   1.486       .  S
C425       C1412   1.485       .  S
O426        C434   1.259       .  A
O426       Co446   1.954       .  S
O427        C435   1.260       .  A
O427       Co447   1.955       .  S
O428        C436   1.271       .  A
O428       Co448   2.043       .  S
O429        C437   1.273       .  A
O429       Co449   2.053       .  S
O430        C436   1.261   1_545  A
O430       Co447   1.971       .  S
O431        C437   1.261       .  A
O431       Co446   1.972   1_545  S
O432        C435   1.272       .  A
O432       Co449   2.009       .  S
O433        C434   1.275       .  A
O433       Co448   2.019       .  S
C434       C2260   1.458       .  S
C435       C1612   1.457       .  S
C436       C1340   1.487       .  S
C437       C1468   1.492       .  S
O438        C451   1.274       .  A
O438       Co446   2.017       .  S
O439        C452   1.274       .  A
O439       Co447   2.017       .  S
O440        C453   1.265       .  A
O440       Co448   1.981       .  S
O441        C454   1.263       .  A
O441       Co449   1.976       .  S
O442        C454   1.271       .  A
O442       Co447   2.033       .  S
O443        C453   1.269       .  A
O443       Co446   2.025       .  S
O444        C451   1.261       .  A
O444       Co449   1.960   1_565  S
O445        C452   1.263   1_565  A
O445       Co448   1.967       .  S
Co446       O450   2.094       .  S
Co447       O450   2.098   1_545  S
Co448       O450   2.110       .  S
Co449       O450   2.102   1_545  S
C451       C1304   1.466       .  S
C452       C1286   1.468       .  S
C453       C1324   1.485       .  S
C454       C2168   1.487       .  S
C455        C456   1.424       .  A
C455        C460   1.422   1_565  A
C455       C1342   1.500       .  S
C456        C457   1.423   1_556  A
C456       C2350   1.500       .  S
C457        C458   1.422   1_565  A
C457       C2800   1.494       .  S
C458        C459   1.424       .  A
C458       C1558   1.509       .  S
C459        C460   1.423   1_554  A
C459       C1268   1.494       .  S
C460       C1250   1.503       .  S
O461        C469   1.260       .  A
O461       Co481   1.956       .  S
O462        C470   1.263       .  A
O462       Co482   1.963       .  S
O463        C471   1.271       .  A
O463       Co483   2.035       .  S
O464        C472   1.269       .  A
O464       Co484   2.029       .  S
O465        C471   1.263       .  A
O465       Co482   1.977       .  S
O466        C472   1.260       .  A
O466       Co481   1.972       .  S
O467        C470   1.276       .  A
O467       Co484   2.022       .  S
O468        C469   1.273       .  A
O468       Co483   2.013       .  S
C469       C1808   1.458       .  S
C470       C1198   1.466       .  S
C471       C1216   1.490       .  S
C472       C1270   1.482       .  S
O473        C486   1.275       .  A
O473       Co481   2.013       .  S
O474        C487   1.273       .  A
O474       Co482   2.012       .  S
O475        C488   1.265       .  A
O475       Co483   1.984       .  S
O476        C489   1.264       .  A
O476       Co484   1.981       .  S
O477        C489   1.267       .  A
O477       Co482   2.020       .  S
O478        C488   1.272       .  A
O478       Co481   2.043       .  S
O479        C486   1.262       .  A
O479       Co484   1.955       .  S
O480        C487   1.265       .  A
O480       Co483   1.958       .  S
Co481       O485   2.096       .  S
Co482       O485   2.093       .  S
Co483       O485   2.107       .  S
Co484       O485   2.113       .  S
C486       C1522   1.462       .  S
C487       C1178   1.456       .  S
C488       C1918   1.497       .  S
C489       C1232   1.481       .  S
O490        C498   1.274       .  A
O490       Co510   2.028       .  S
O491        C499   1.273       .  A
O491       Co511   2.019       .  S
O492        C500   1.261       .  A
O492       Co512   1.972       .  S
O493        C501   1.266       .  A
O493       Co513   1.983       .  S
O494        C500   1.271       .  A
O494       Co511   2.037       .  S
O495        C501   1.269       .  A
O495       Co510   2.022       .  S
O496        C499   1.259       .  A
O496       Co513   1.960       .  S
O497        C498   1.259       .  A
O497       Co512   1.955       .  S
C498       C1990   1.465       .  S
C499       C1630   1.462       .  S
C500       C1702   1.486       .  S
C501       C1900   1.485       .  S
O502        C515   1.261       .  A
O502       Co510   1.959       .  S
O503        C516   1.257       .  A
O503       Co511   1.954       .  S
O504        C517   1.271       .  A
O504       Co512   2.043       .  S
O505        C518   1.275       .  A
O505       Co513   2.065       .  S
O506        C518   1.260       .  A
O506       Co511   1.962       .  S
O507        C517   1.259       .  A
O507       Co510   1.968       .  S
O508        C515   1.271       .  A
O508       Co513   2.005       .  S
O509        C516   1.273       .  A
O509       Co512   2.025       .  S
Co510       O514   2.104       .  S
Co511       O514   2.097       .  S
Co512       O514   2.105       .  S
Co513       O514   2.109       .  S
C515       C1540   1.462       .  S
C516       C1160   1.461       .  S
C517       C2962   1.486       .  S
C518       C1448   1.491       .  S
C519        C520   1.425       .  A
C519        C524   1.424       .  A
C519       C3106   1.502       .  S
C520        C521   1.429       .  A
C520       C1106   1.504       .  S
C521        C522   1.423       .  A
C521       C1414   1.496       .  S
C522        C523   1.420       .  A
C522       C1142   1.502       .  S
C523        C524   1.420       .  A
C523       C1124   1.499       .  S
C524       C2656   1.498       .  S
O525        C533   1.271       .  A
O525       Co545   2.015       .  S
O526        C534   1.276       .  A
O526       Co546   2.018       .  S
O527        C535   1.263       .  A
O527       Co547   1.980       .  S
O528        C536   1.265       .  A
O528       Co548   1.988       .  S
O529        C535   1.271       .  A
O529       Co546   2.041       .  S
O530        C536   1.268       .  A
O530       Co545   2.021       .  S
O531        C534   1.262       .  A
O531       Co548   1.957       .  S
O532        C533   1.263       .  A
O532       Co547   1.952       .  S
C533       C1360   1.457       .  S
C534       C1180   1.468       .  S
C535       C1054   1.494       .  S
C536       C1070   1.486       .  S
O537        C550   1.263       .  A
O537       Co545   1.954       .  S
O538        C551   1.258       .  A
O538       Co546   1.954       .  S
O539        C552   1.270       .  A
O539       Co547   2.036       .  S
O540        C553   1.271       .  A
O540       Co548   2.039       .  S
O541        C553   1.259       .  A
O541       Co546   1.967       .  S
O542        C552   1.261       .  A
O542       Co545   1.974       .  S
O543        C550   1.273       .  A
O543       Co548   2.018       .  S
O544        C551   1.274       .  A
O544       Co547   2.026       .  S
Co545       O549   2.100       .  S
Co546       O549   2.094       .  S
Co547       O549   2.110       .  S
Co548       O549   2.113       .  S
C550       C1016   1.458       .  S
C551       C1034   1.461       .  S
C552       C1144   1.487       .  S
C553       C1090   1.483       .  S
C554        C555   1.421       .  A
C554        C559   1.420       .  A
C554       C2044   1.503       .  S
C555        C556   1.423       .  A
C555       C3124   1.497       .  S
C556        C557   1.421       .  A
C556        C982   1.495       .  S
C557        C558   1.421       .  A
C557       C1234   1.499       .  S
C558        C559   1.421       .  A
C558       C1088   1.495       .  S
C559        C998   1.499       .  S
C560        C561   1.420       .  A
C560        C565   1.423       .  A
C560       C2924   1.493       .  S
C561        C562   1.418       .  A
C561        C944   1.498       .  S
C562        C563   1.422       .  A
C562       C1322   1.501       .  S
C563        C564   1.426       .  A
C563       C2332   1.494       .  S
C564        C565   1.425       .  A
C564        C962   1.502       .  S
C565       C2152   1.504       .  S
O566        C574   1.257       .  A
O566       Co586   1.958   1_565  S
O567        C575   1.261       .  A
O567       Co587   1.959   1_545  S
O568        C576   1.274       .  A
O568       Co588   2.033       .  S
O569        C577   1.274       .  A
O569       Co589   2.034       .  S
O570        C576   1.262       .  A
O570       Co587   1.965       .  S
O571        C577   1.264       .  A
O571       Co586   1.969       .  S
O572        C575   1.267       .  A
O572       Co589   2.009       .  S
O573        C574   1.270       .  A
O573       Co588   2.020       .  S
C574       C2746   1.465       .  S
C575       C1162   1.459       .  S
C576       C2366   1.479       .  S
C577       C1718   1.480       .  S
O578        C591   1.270       .  A
O578       Co586   2.008       .  S
O579        C592   1.267       .  A
O579       Co587   2.013       .  S
O580        C593   1.263       .  A
O580       Co588   1.968       .  S
O581        C594   1.264       .  A
O581       Co589   1.967       .  S
O582        C594   1.275   1_565  A
O582       Co587   2.033       .  S
O583        C593   1.275       .  A
O583       Co586   2.039   1_565  S
O584        C591   1.259       .  A
O584       Co589   1.963       .  S
O585        C592   1.261       .  A
O585       Co588   1.959       .  S
Co586       O590   2.099   1_545  S
Co587       O590   2.102       .  S
Co588       O590   2.101       .  S
Co589       O590   2.098   1_545  S
C591       C3178   1.469       .  S
C592       C2816   1.463       .  S
C593       C3304   1.484       .  S
C594       C2980   1.479       .  S
O595        C603   1.258       .  A
O595       Co615   1.942       .  S
O596        C604   1.263       .  A
O596       Co616   1.965       .  S
O597        C605   1.267       .  A
O597       Co617   2.019       .  S
O598        C606   1.272       .  A
O598       Co618   2.055       .  S
O599        C605   1.266       .  A
O599       Co616   1.983       .  S
O600        C606   1.256       .  A
O600       Co615   1.965       .  S
O601        C604   1.275       .  A
O601       Co618   2.014       .  S
O602        C603   1.276       .  A
O602       Co617   2.022       .  S
C603       C2080   1.459       .  S
C604       C1018   1.470       .  S
C605        C926   1.484       .  S
C606        C908   1.489       .  S
O607        C620   1.274       .  A
O607       Co615   2.015       .  S
O608        C621   1.276       .  A
O608       Co616   2.014       .  S
O609        C622   1.268       .  A
O609       Co617   1.990       .  S
O610        C623   1.264       .  A
O610       Co618   1.985       .  S
O611        C623   1.267       .  A
O611       Co616   2.018       .  S
O612        C622   1.269       .  A
O612       Co615   2.022       .  S
O613        C620   1.261       .  A
O613       Co618   1.958       .  S
O614        C621   1.270       .  A
O614       Co617   1.981       .  S
Co615       O619   2.089       .  S
Co616       O619   2.104       .  S
Co617       O619   2.114       .  S
Co618       O619   2.119       .  S
C620       C1594   1.467       .  S
C621       C1972   1.485       .  S
C622       C2224   1.490       .  S
C623       C1000   1.484       .  S
C624        C625   1.424       .  A
C624        C629   1.423       .  A
C624       C2494   1.497       .  S
C625        C626   1.426   1_455  A
C625       C2908   1.508       .  S
C626        C627   1.426       .  A
C626       C2116   1.493       .  S
C627        C628   1.420       .  A
C627        C928   1.506       .  S
C628        C629   1.423   1_655  A
C628       C2026   1.504       .  S
C629        C890   1.495       .  S
O630        C638   1.269       .  A
O630       Co650   2.008       .  S
O631        C639   1.268       .  A
O631       Co651   2.008       .  S
O632        C640   1.262       .  A
O632       Co652   1.967       .  S
O633        C641   1.263       .  A
O633       Co653   1.972       .  S
O634        C640   1.276       .  A
O634       Co651   2.051       .  S
O635        C641   1.274       .  A
O635       Co650   2.038       .  S
O636        C639   1.261       .  A
O636       Co653   1.958   1_556  S
O637        C638   1.262       .  A
O637       Co652   1.965   1_554  S
C638       C2602   1.462       .  S
C639       C2278   1.459       .  S
C640        C964   1.487       .  S
C641       C1126   1.486       .  S
O642        C655   1.261       .  A
O642       Co650   1.956       .  S
O643        C656   1.258       .  A
O643       Co651   1.959       .  S
O644        C657   1.272   1_556  A
O644       Co652   2.033       .  S
O645        C658   1.274       .  A
O645       Co653   2.046       .  S
O646        C658   1.266   1_556  A
O646       Co651   1.978       .  S
O647        C657   1.265       .  A
O647       Co650   1.979       .  S
O648        C655   1.269       .  A
O648       Co653   2.012       .  S
O649        C656   1.272       .  A
O649       Co652   2.024       .  S
Co650       O654   2.104       .  S
Co651       O654   2.101   1_556  S
Co652       O654   2.110   1_556  S
Co653       O654   2.107       .  S
C655       C1036   1.461       .  S
C656       C2098   1.465       .  S
C657        C854   1.489   1_554  S
C658        C872   1.492       .  S
C659        C660   1.427       .  A
C659        C664   1.420       .  A
C659        C836   1.512       .  S
C660        C661   1.435   1_556  A
C660       C2312   1.503       .  S
C661        C662   1.429       .  A
C661        C874   1.501       .  S
C662        C663   1.425       .  A
C662       C1052   1.503       .  S
C663        C664   1.419   1_554  A
C663       C1214   1.501       .  S
C664       C1846   1.499       .  S
O665        C673   1.261       .  A
O665       Co685   1.957   1_556  S
O666        C674   1.265   1_556  A
O666       Co686   1.965       .  S
O667        C675   1.267       .  A
O667       Co687   2.021       .  S
O668        C676   1.268       .  A
O668       Co688   2.040       .  S
O669        C675   1.264       .  A
O669       Co686   1.979       .  S
O670        C676   1.256       .  A
O670       Co685   1.965       .  S
O671        C674   1.276       .  A
O671       Co688   2.021       .  S
O672        C673   1.277       .  A
O672       Co687   2.028       .  S
C673       C3214   1.466       .  S
C674       C1196   1.465       .  S
C675       C2188   1.485       .  S
C676        C980   1.483       .  S
O677        C690   1.278       .  A
O677       Co685   2.032       .  S
O678        C691   1.276       .  A
O678       Co686   2.019       .  S
O679        C692   1.265       .  A
O679       Co687   1.983   1_554  S
O680        C693   1.264       .  A
O680       Co688   1.982   1_556  S
O681        C693   1.267       .  A
O681       Co686   2.022       .  S
O682        C692   1.266       .  A
O682       Co685   2.020       .  S
O683        C690   1.263       .  A
O683       Co688   1.959       .  S
O684        C691   1.266       .  A
O684       Co687   1.966       .  S
Co685       O689   2.091   1_554  S
Co686       O689   2.103       .  S
Co687       O689   2.107       .  S
Co688       O689   2.112   1_554  S
C690       C3052   1.471       .  S
C691       C1288   1.465       .  S
C692       C3284   1.487       .  S
C693       C1252   1.486       .  S
O694        C702   1.276       .  A
O694       Co714   2.015       .  S
O695        C703   1.279       .  A
O695       Co715   2.032       .  S
O696        C704   1.262       .  A
O696       Co716   1.979       .  S
O697        C705   1.260       .  A
O697       Co717   1.979       .  S
O698        C704   1.264       .  A
O698       Co715   2.016       .  S
O699        C705   1.268       .  A
O699       Co714   2.033       .  S
O700        C703   1.264       .  A
O700       Co717   1.963       .  S
O701        C702   1.261       .  A
O701       Co716   1.953       .  S
C702       C2440   1.461       .  S
C703       C1774   1.474       .  S
C704       C1738   1.479       .  S
C705       C2386   1.486       .  S
O706        C719   1.261       .  A
O706       Co714   1.943       .  S
O707        C720   1.263       .  A
O707       Co715   1.960       .  S
O708        C721   1.269       .  A
O708       Co716   2.044       .  S
O709        C722   1.268       .  A
O709       Co717   2.031       .  S
O710        C722   1.264       .  A
O710       Co715   1.984       .  S
O711        C721   1.261       .  A
O711       Co714   1.979       .  S
O712        C719   1.278       .  A
O712       Co717   2.027       .  S
O713        C720   1.277       .  A
O713       Co716   2.017       .  S
Co714       O718   2.100       .  S
Co715       O718   2.101       .  S
Co716       O718   2.106       .  S
Co717       O718   2.095       .  S
C719       C2296   1.460       .  S
C720       C1648   1.460       .  S
C721        C818   1.495       .  S
C722        C838   1.491       .  S
O723        C731   1.273       .  A
O723       Co743   2.010       .  S
O724        C732   1.272       .  A
O724       Co744   2.005       .  S
O725        C733   1.268       .  A
O725       Co745   1.982       .  S
O726        C734   1.266       .  A
O726       Co746   1.984       .  S
O727        C733   1.273       .  A
O727       Co744   2.036       .  S
O728        C734   1.268       .  A
O728       Co743   2.019       .  S
O729        C732   1.265       .  A
O729       Co746   1.970       .  S
O730        C731   1.266       .  A
O730       Co745   1.971       .  S
C731       C3070   1.467       .  S
C732       C1306   1.469       .  S
C733       C1430   1.494       .  S
C734       C2942   1.480       .  S
O735        C748   1.265       .  A
O735       Co743   1.970       .  S
O736        C749   1.264       .  A
O736       Co744   1.961       .  S
O737        C750   1.270       .  A
O737       Co745   2.026       .  S
O738        C751   1.272       .  A
O738       Co746   2.030       .  S
O739        C751   1.264       .  A
O739       Co744   1.977       .  S
O740        C750   1.268       .  A
O740       Co743   1.982       .  S
O741        C748   1.275       .  A
O741       Co746   2.020       .  S
O742        C749   1.268       .  A
O742       Co745   2.001       .  S
Co743       O747   2.103       .  S
Co744       O747   2.104       .  S
Co745       O747   2.099       .  S
Co746       O747   2.111       .  S
C748       C2872   1.468       .  S
C749       C1378   1.450       .  S
C750       C1108   1.483       .  S
C751        C946   1.486       .  S
O752        C760   1.264       .  A
O752       Co772   1.955       .  S
O753        C761   1.261       .  A
O753       Co773   1.953       .  S
O754        C762   1.269       .  A
O754       Co774   2.025       .  S
O755        C763   1.269       .  A
O755       Co775   2.027       .  S
O756        C762   1.264       .  A
O756       Co773   1.975       .  S
O757        C763   1.261       .  A
O757       Co772   1.974       .  S
O758        C761   1.278       .  A
O758       Co775   2.026       .  S
O759        C760   1.273       .  A
O759       Co774   2.021       .  S
C760       C2618   1.462       .  S
C761       C2006   1.468       .  S
C762        C802   1.480       .  S
C763        C892   1.482       .  S
O764        C777   1.274       .  A
O764       Co772   2.020       .  S
O765        C778   1.273       .  A
O765       Co773   2.007       .  S
O766        C779   1.261       .  A
O766       Co774   1.974       .  S
O767        C780   1.262       .  A
O767       Co775   1.976       .  S
O768        C780   1.270       .  A
O768       Co773   2.032       .  S
O769        C779   1.271       .  A
O769       Co772   2.035       .  S
O770        C777   1.262       .  A
O770       Co775   1.961       .  S
O771        C778   1.262       .  A
O771       Co774   1.960       .  S
Co772       O776   2.103       .  S
Co773       O776   2.104       .  S
Co774       O776   2.097       .  S
Co775       O776   2.101       .  S
C777       C2422   1.461       .  S
C778       C1792   1.459       .  S
C779       C2566   1.488       .  S
C780       C1880   1.486       .  S
C781        C782   1.426       .  A
C781        C786   1.429       .  A
C781        C820   1.505       .  S
C782        C783   1.423       .  A
C782       C2476   1.498       .  S
C783        C784   1.421       .  A
C783       C1394   1.501       .  S
C784        C785   1.422       .  A
C784       C1072   1.503       .  S
C785        C786   1.425       .  A
C785        C910   1.500       .  S
C786       C1666   1.499       .  S
C787        C788   1.421   1_655  A
C787        C792   1.417       .  A
C787       C2134   1.499       .  S
C788        C789   1.420   1_556  A
C788       C3250   1.492       .  S
C789        C790   1.423       .  A
C789       C1828   1.504       .  S
C790        C791   1.427   1_455  A
C790        C800   1.500       .  S
C791        C792   1.422   1_554  A
C791       C2638   1.495       .  S
C792        C856   1.497       .  S
C793        C794   1.404       .  A
C793        C798   1.408       .  A
C793        C801   1.493       .  S
C794        C795   1.401       .  A
C794        H803   1.084       .  S
C795        C796   1.410       .  A
C795        H804   1.081       .  S
C796        C797   1.405       .  A
C796        C799   1.495       .  S
C797        C798   1.402       .  A
C797        H805   1.084       .  S
C798        H806   1.082       .  S
C799        H807   1.086       .  S
C799        C800   1.349       .  D
C800        H808   1.085       .  S
C801        H809   1.087       .  S
C801        C802   1.347       .  D
C802        H810   1.085       .  S
C811        C812   1.407       .  A
C811        C816   1.410       .  A
C811        C819   1.504       .  S
C812        C813   1.403       .  A
C812        H821   1.083       .  S
C813        C814   1.408       .  A
C813        H822   1.081       .  S
C814        C815   1.410       .  A
C814        C817   1.507       .  S
C815        C816   1.410       .  A
C815        H823   1.083       .  S
C816        H824   1.081       .  S
C817        H825   1.087       .  S
C817        C818   1.357       .  D
C818        H826   1.085       .  S
C819        H827   1.087       .  S
C819        C820   1.353       .  D
C820        H828   1.084       .  S
C829        C830   1.405       .  A
C829        C834   1.412       .  A
C829        C837   1.505       .  S
C830        C831   1.404       .  A
C830        H839   1.083       .  S
C831        C832   1.407       .  A
C831        H840   1.083       .  S
C832        C833   1.411       .  A
C832        C835   1.507       .  S
C833        C834   1.409       .  A
C833        H841   1.081       .  S
C834        H842   1.082       .  S
C835        H843   1.086       .  S
C835        C836   1.355       .  D
C836        H844   1.081       .  S
C837        H845   1.087       .  S
C837        C838   1.350       .  D
C838        H846   1.085       .  S
C847        C848   1.406   1_554  A
C847        C852   1.406       .  A
C847        C855   1.496       .  S
C848        C849   1.403       .  A
C848        H857   1.082       .  S
C849        C850   1.408       .  A
C849        H858   1.083       .  S
C850        C851   1.409   1_556  A
C850        C853   1.501       .  S
C851        C852   1.404       .  A
C851        H859   1.080       .  S
C852        H860   1.083       .  S
C853        H861   1.087       .  S
C853        C854   1.354       .  D
C854        H862   1.083   1_556  S
C855        H863   1.087       .  S
C855        C856   1.350   1_554  D
C856        H864   1.084       .  S
C865        C866   1.407       .  A
C865        C870   1.409       .  A
C865        C873   1.503       .  S
C866        C867   1.404       .  A
C866        H875   1.083       .  S
C867        C868   1.408       .  A
C867        H876   1.081       .  S
C868        C869   1.409       .  A
C868        C871   1.505       .  S
C869        C870   1.408       .  A
C869        H877   1.083       .  S
C870        H878   1.081       .  S
C871        H879   1.086       .  S
C871        C872   1.355       .  D
C872        H880   1.083       .  S
C873        H881   1.087       .  S
C873        C874   1.354       .  D
C874        H882   1.083       .  S
C883        C884   1.406       .  A
C883        C888   1.407       .  A
C883        C891   1.493       .  S
C884        C885   1.401       .  A
C884        H893   1.084       .  S
C885        C886   1.407       .  A
C885        H894   1.080       .  S
C886        C887   1.407       .  A
C886        C889   1.494       .  S
C887        C888   1.401       .  A
C887        H895   1.083       .  S
C888        H896   1.081       .  S
C889        H897   1.088       .  S
C889        C890   1.351       .  D
C890        H898   1.082       .  S
C891        H899   1.087       .  S
C891        C892   1.350       .  D
C892        H900   1.084       .  S
C901        C902   1.407       .  A
C901        C906   1.407       .  A
C901        C909   1.499       .  S
C902        C903   1.404       .  A
C902        H911   1.083       .  S
C903        C904   1.410       .  A
C903        H912   1.081       .  S
C904        C905   1.407       .  A
C904        C907   1.503       .  S
C905        C906   1.406       .  A
C905        H913   1.083       .  S
C906        H914   1.082       .  S
C907        H915   1.086       .  S
C907        C908   1.352       .  D
C908        H916   1.084       .  S
C909        H917   1.087       .  S
C909        C910   1.352       .  D
C910        H918   1.085       .  S
C919        C920   1.405       .  A
C919        C924   1.409       .  A
C919        C927   1.501       .  S
C920        C921   1.406       .  A
C920        H929   1.083       .  S
C921        C922   1.413       .  A
C921        H930   1.079       .  S
C922        C923   1.406       .  A
C922        C925   1.506       .  S
C923        C924   1.403       .  A
C923        H931   1.083       .  S
C924        H932   1.082       .  S
C925        H933   1.087       .  S
C925        C926   1.350       .  D
C926        H934   1.082       .  S
C927        H935   1.086       .  S
C927        C928   1.351       .  D
C928        H936   1.085       .  S
C937        C938   1.407       .  A
C937        C942   1.408       .  A
C937        C945   1.498       .  S
C938        C939   1.403       .  A
C938        H947   1.083       .  S
C939        C940   1.409       .  A
C939        H948   1.079       .  S
C940        C941   1.407       .  A
C940        C943   1.498       .  S
C941        C942   1.402       .  A
C941        H949   1.083       .  S
C942        H950   1.080       .  S
C943        H951   1.087       .  S
C943        C944   1.350       .  D
C944        H952   1.082       .  S
C945        H953   1.087       .  S
C945        C946   1.353       .  D
C946        H954   1.083       .  S
C955        C956   1.407       .  A
C955        C960   1.411       .  A
C955        C963   1.504       .  S
C956        C957   1.404       .  A
C956        H965   1.083       .  S
C957        C958   1.408       .  A
C957        H966   1.081       .  S
C958        C959   1.406       .  A
C958        C961   1.498       .  S
C959        C960   1.404       .  A
C959        H967   1.083       .  S
C960        H968   1.079       .  S
C961        H969   1.087       .  S
C961        C962   1.352       .  D
C962        H970   1.084       .  S
C963        H971   1.086       .  S
C963        C964   1.351       .  D
C964        H972   1.082       .  S
C973        C974   1.405       .  A
C973        C978   1.408       .  A
C973        C981   1.494       .  S
C974        C975   1.400       .  A
C974        H983   1.083       .  S
C975        C976   1.408       .  A
C975        H984   1.081       .  S
C976        C977   1.406       .  A
C976        C979   1.496       .  S
C977        C978   1.404       .  A
C977        H985   1.083       .  S
C978        H986   1.081       .  S
C979        H987   1.087       .  S
C979        C980   1.350       .  D
C980        H988   1.084       .  S
C981        H989   1.087       .  S
C981        C982   1.349       .  D
C982        H990   1.084       .  S
C991        C992   1.404       .  A
C991        C996   1.411       .  A
C991        C999   1.498       .  S
C992        C993   1.403       .  A
C992       H1001   1.083       .  S
C993        C994   1.411       .  A
C993       H1002   1.081       .  S
C994        C995   1.404       .  A
C994        C997   1.497       .  S
C995        C996   1.402       .  A
C995       H1003   1.083       .  S
C996       H1004   1.082       .  S
C997       H1005   1.086       .  S
C997        C998   1.347       .  D
C998       H1006   1.085       .  S
C999       H1007   1.086       .  S
C999       C1000   1.347       .  D
C1000      H1008   1.084       .  S
C1009      C1010   1.403       .  A
C1009      C1014   1.406       .  A
C1009      C1017   1.475       .  S
C1010      C1011   1.390       .  A
C1010      H1019   1.084       .  S
C1011      C1012   1.401       .  A
C1011      H1020   1.083       .  S
C1012      C1013   1.403       .  A
C1012      C1015   1.473       .  S
C1013      C1014   1.399       .  A
C1013      H1021   1.083       .  S
C1014      H1022   1.081       .  S
C1015      H1023   1.088       .  S
C1015      C1016   1.342       .  D
C1016      H1024   1.088       .  S
C1017      H1025   1.089       .  S
C1017      C1018   1.344       .  D
C1018      H1026   1.085       .  S
C1027      C1028   1.399       .  A
C1027      C1032   1.404       .  A
C1027      C1035   1.471       .  S
C1028      C1029   1.395       .  A
C1028      H1037   1.083       .  S
C1029      C1030   1.409       .  A
C1029      H1038   1.080       .  S
C1030      C1031   1.402       .  A
C1030      C1033   1.478       .  S
C1031      C1032   1.392       .  A
C1031      H1039   1.084       .  S
C1032      H1040   1.083       .  S
C1033      H1041   1.088       .  S
C1033      C1034   1.342       .  D
C1034      H1042   1.083       .  S
C1035      H1043   1.086       .  S
C1035      C1036   1.340       .  D
C1036      H1044   1.086       .  S
C1045      C1046   1.408       .  A
C1045      C1050   1.410       .  A
C1045      C1053   1.506       .  S
C1046      C1047   1.406       .  A
C1046      H1055   1.083       .  S
C1047      C1048   1.409       .  A
C1047      H1056   1.081       .  S
C1048      C1049   1.409       .  A
C1048      C1051   1.506       .  S
C1049      C1050   1.407       .  A
C1049      H1057   1.083       .  S
C1050      H1058   1.080       .  S
C1051      H1059   1.087       .  S
C1051      C1052   1.355       .  D
C1052      H1060   1.083       .  S
C1053      H1061   1.087       .  S
C1053      C1054   1.355       .  D
C1054      H1062   1.084       .  S
C1063      C1064   1.404       .  A
C1063      C1068   1.410       .  A
C1063      C1071   1.500       .  S
C1064      C1065   1.403       .  A
C1064      H1073   1.083       .  S
C1065      C1066   1.413       .  A
C1065      H1074   1.079       .  S
C1066      C1067   1.406       .  A
C1066      C1069   1.505       .  S
C1067      C1068   1.404       .  A
C1067      H1075   1.083       .  S
C1068      H1076   1.082       .  S
C1069      H1077   1.087       .  S
C1069      C1070   1.349       .  D
C1070      H1078   1.082       .  S
C1071      H1079   1.086       .  S
C1071      C1072   1.349       .  D
C1072      H1080   1.084       .  S
C1081      C1082   1.407       .  A
C1081      C1086   1.406       .  A
C1081      C1089   1.495       .  S
C1082      C1083   1.406       .  A
C1082      H1091   1.084       .  S
C1083      C1084   1.409       .  A
C1083      H1092   1.080       .  S
C1084      C1085   1.405       .  A
C1084      C1087   1.494       .  S
C1085      C1086   1.398       .  A
C1085      H1093   1.084       .  S
C1086      H1094   1.082       .  S
C1087      H1095   1.088       .  S
C1087      C1088   1.350       .  D
C1088      H1096   1.084       .  S
C1089      H1097   1.087       .  S
C1089      C1090   1.349       .  D
C1090      H1098   1.086       .  S
C1099      C1100   1.404       .  A
C1099      C1104   1.411       .  A
C1099      C1107   1.499       .  S
C1100      C1101   1.401       .  A
C1100      H1109   1.083       .  S
C1101      C1102   1.410       .  A
C1101      H1110   1.081       .  S
C1102      C1103   1.405       .  A
C1102      C1105   1.499       .  S
C1103      C1104   1.404       .  A
C1103      H1111   1.083       .  S
C1104      H1112   1.081       .  S
C1105      H1113   1.086       .  S
C1105      C1106   1.350       .  D
C1106      H1114   1.085       .  S
C1107      H1115   1.087       .  S
C1107      C1108   1.346       .  D
C1108      H1116   1.084       .  S
C1117      C1118   1.406       .  A
C1117      C1122   1.410       .  A
C1117      C1125   1.499       .  S
C1118      C1119   1.400       .  A
C1118      H1127   1.083       .  S
C1119      C1120   1.408       .  A
C1119      H1128   1.080       .  S
C1120      C1121   1.406       .  A
C1120      C1123   1.498       .  S
C1121      C1122   1.404       .  A
C1121      H1129   1.083       .  S
C1122      H1130   1.080       .  S
C1123      H1131   1.087       .  S
C1123      C1124   1.350       .  D
C1124      H1132   1.080       .  S
C1125      H1133   1.087       .  S
C1125      C1126   1.351       .  D
C1126      H1134   1.083       .  S
C1135      C1136   1.409       .  A
C1135      C1140   1.409       .  A
C1135      C1143   1.503       .  S
C1136      C1137   1.405       .  A
C1136      H1145   1.084       .  S
C1137      C1138   1.408       .  A
C1137      H1146   1.082       .  S
C1138      C1139   1.405       .  A
C1138      C1141   1.497       .  S
C1139      C1140   1.402       .  A
C1139      H1147   1.083       .  S
C1140      H1148   1.080       .  S
C1141      H1149   1.088       .  S
C1141      C1142   1.350       .  D
C1142      H1150   1.083       .  S
C1143      H1151   1.087       .  S
C1143      C1144   1.355       .  D
C1144      H1152   1.083       .  S
C1153      C1154   1.399       .  A
C1153      C1158   1.404       .  A
C1153      C1161   1.472       .  S
C1154      C1155   1.396       .  A
C1154      H1163   1.084       .  S
C1155      C1156   1.409       .  A
C1155      H1164   1.080       .  S
C1156      C1157   1.402       .  A
C1156      C1159   1.478       .  S
C1157      C1158   1.391       .  A
C1157      H1165   1.083       .  S
C1158      H1166   1.083       .  S
C1159      H1167   1.089       .  S
C1159      C1160   1.342       .  D
C1160      H1168   1.084       .  S
C1161      H1169   1.088       .  S
C1161      C1162   1.340       .  D
C1162      H1170   1.088       .  S
C1171      C1172   1.398       .  A
C1171      C1176   1.410       .  A
C1171      C1179   1.475       .  S
C1172      C1173   1.389       .  A
C1172      H1181   1.084       .  S
C1173      C1174   1.406       .  A
C1173      H1182   1.083       .  S
C1174      C1175   1.399       .  A
C1174      C1177   1.474       .  S
C1175      C1176   1.400       .  A
C1175      H1183   1.083       .  S
C1176      H1184   1.082       .  S
C1177      H1185   1.087       .  S
C1177      C1178   1.340       .  D
C1178      H1186   1.087       .  S
C1179      H1187   1.088       .  S
C1179      C1180   1.340       .  D
C1180      H1188   1.085       .  S
C1189      C1190   1.401       .  A
C1189      C1194   1.404       .  A
C1189      C1197   1.471       .  S
C1190      C1191   1.393       .  A
C1190      H1199   1.084       .  S
C1191      C1192   1.404       .  A
C1191      H1200   1.082       .  S
C1192      C1193   1.404       .  A
C1192      C1195   1.474       .  S
C1193      C1194   1.396       .  A
C1193      H1201   1.084       .  S
C1194      H1202   1.082       .  S
C1195      H1203   1.089       .  S
C1195      C1196   1.344       .  D
C1196      H1204   1.085       .  S
C1197      H1205   1.088       .  S
C1197      C1198   1.341       .  D
C1198      H1206   1.086       .  S
C1207      C1208   1.410       .  A
C1207      C1212   1.406       .  A
C1207      C1215   1.500       .  S
C1208      C1209   1.408       .  A
C1208      H1217   1.081       .  S
C1209      C1210   1.413       .  A
C1209      H1218   1.081       .  S
C1210      C1211   1.403       .  A
C1210      C1213   1.500       .  S
C1211      C1212   1.400       .  A
C1211      H1219   1.084       .  S
C1212      H1220   1.083       .  S
C1213      H1221   1.087       .  S
C1213      C1214   1.348       .  D
C1214      H1222   1.083       .  S
C1215      H1223   1.087       .  S
C1215      C1216   1.353       .  D
C1216      H1224   1.084       .  S
C1225      C1226   1.402       .  A
C1225      C1230   1.409       .  A
C1225      C1233   1.495       .  S
C1226      C1227   1.401       .  A
C1226      H1235   1.084       .  S
C1227      C1228   1.412       .  A
C1227      H1236   1.079       .  S
C1228      C1229   1.406       .  A
C1228      C1231   1.501       .  S
C1229      C1230   1.403       .  A
C1229      H1237   1.084       .  S
C1230      H1238   1.081       .  S
C1231      H1239   1.087       .  S
C1231      C1232   1.348       .  D
C1232      H1240   1.082       .  S
C1233      H1241   1.087       .  S
C1233      C1234   1.347       .  D
C1234      H1242   1.085       .  S
C1243      C1244   1.405   1_556  A
C1243      C1248   1.412       .  A
C1243      C1251   1.502       .  S
C1244      C1245   1.403       .  A
C1244      H1253   1.084       .  S
C1245      C1246   1.409   1_554  A
C1245      H1254   1.081       .  S
C1246      C1247   1.404       .  A
C1246      C1249   1.499       .  S
C1247      C1248   1.405       .  A
C1247      H1255   1.083       .  S
C1248      H1256   1.081       .  S
C1249      H1257   1.087       .  S
C1249      C1250   1.349       .  D
C1250      H1258   1.086       .  S
C1251      H1259   1.087   1_556  S
C1251      C1252   1.349       .  D
C1252      H1260   1.084       .  S
C1261      C1262   1.406       .  A
C1261      C1266   1.407       .  A
C1261      C1269   1.493       .  S
C1262      C1263   1.404       .  A
C1262      H1271   1.083       .  S
C1263      C1264   1.409       .  A
C1263      H1272   1.081       .  S
C1264      C1265   1.405       .  A
C1264      C1267   1.493       .  S
C1265      C1266   1.398       .  A
C1265      H1273   1.084       .  S
C1266      H1274   1.081       .  S
C1267      H1275   1.088       .  S
C1267      C1268   1.349       .  D
C1268      H1276   1.083       .  S
C1269      H1277   1.087       .  S
C1269      C1270   1.349       .  D
C1270      H1278   1.085       .  S
C1279      C1280   1.402       .  A
C1279      C1284   1.403       .  A
C1279      C1287   1.471       .  S
C1280      C1281   1.396       .  A
C1280      H1289   1.084       .  S
C1281      C1282   1.405       .  A
C1281      H1290   1.082       .  S
C1282      C1283   1.402       .  A
C1282      C1285   1.473       .  S
C1283      C1284   1.394       .  A
C1283      H1291   1.083       .  S
C1284      H1292   1.083       .  S
C1285      H1293   1.088       .  S
C1285      C1286   1.343       .  D
C1286      H1294   1.085       .  S
C1287      H1295   1.089       .  S
C1287      C1288   1.342       .  D
C1288      H1296   1.087       .  S
C1297      C1298   1.401       .  A
C1297      C1302   1.406       .  A
C1297      C1305   1.474       .  S
C1298      C1299   1.390       .  A
C1298      H1307   1.084       .  S
C1299      C1300   1.400       .  A
C1299      H1308   1.083       .  S
C1300      C1301   1.407       .  A
C1300      C1303   1.475       .  S
C1301      C1302   1.397       .  A
C1301      H1309   1.081       .  S
C1302      H1310   1.081       .  S
C1303      H1311   1.088       .  S
C1303      C1304   1.344       .  D
C1304      H1312   1.084       .  S
C1305      H1313   1.089       .  S
C1305      C1306   1.344       .  D
C1306      H1314   1.085       .  S
C1315      C1316   1.405       .  A
C1315      C1320   1.411       .  A
C1315      C1323   1.501       .  S
C1316      C1317   1.403       .  A
C1316      H1325   1.083       .  S
C1317      C1318   1.411       .  A
C1317      H1326   1.081       .  S
C1318      C1319   1.405       .  A
C1318      C1321   1.500       .  S
C1319      C1320   1.404       .  A
C1319      H1327   1.083       .  S
C1320      H1328   1.080       .  S
C1321      H1329   1.086       .  S
C1321      C1322   1.349       .  D
C1322      H1330   1.083       .  S
C1323      H1331   1.086       .  S
C1323      C1324   1.349       .  D
C1324      H1332   1.083       .  S
C1333      C1334   1.405   1_565  A
C1333      C1338   1.409       .  A
C1333      C1341   1.497       .  S
C1334      C1335   1.400       .  A
C1334      H1343   1.083       .  S
C1335      C1336   1.408   1_545  A
C1335      H1344   1.081       .  S
C1336      C1337   1.408       .  A
C1336      C1339   1.500       .  S
C1337      C1338   1.408       .  A
C1337      H1345   1.083       .  S
C1338      H1346   1.081       .  S
C1339      H1347   1.087       .  S
C1339      C1340   1.353       .  D
C1340      H1348   1.084   1_565  S
C1341      H1349   1.088   1_565  S
C1341      C1342   1.351       .  D
C1342      H1350   1.084       .  S
C1351      C1352   1.400       .  A
C1351      C1356   1.402       .  A
C1351      C1359   1.470       .  S
C1352      C1353   1.396       .  A
C1352      H1361   1.083       .  S
C1353      C1354   1.409       .  A
C1353      H1362   1.080       .  S
C1354      C1355   1.402       .  A
C1354      C1357   1.476       .  S
C1355      C1356   1.389       .  A
C1355      H1363   1.084       .  S
C1356      H1364   1.082       .  S
C1357      H1365   1.089       .  S
C1357      C1358   1.343       .  D
C1358      H1366   1.083       .  S
C1359      H1367   1.087       .  S
C1359      C1360   1.339       .  D
C1360      H1368   1.087       .  S
C1369      C1370   1.399       .  A
C1369      C1374   1.410       .  A
C1369      C1377   1.475       .  S
C1370      C1371   1.395       .  A
C1370      H1379   1.083       .  S
C1371      C1372   1.408       .  A
C1371      H1380   1.083       .  S
C1372      C1373   1.393       .  A
C1372      C1375   1.465       .  S
C1373      C1374   1.386       .  A
C1373      H1381   1.084       .  S
C1374      H1382   1.082       .  S
C1375      H1383   1.087       .  S
C1375      C1376   1.334       .  D
C1376      H1384   1.086       .  S
C1377      H1385   1.087       .  S
C1377      C1378   1.334       .  D
C1378      H1386   1.085       .  S
C1387      C1388   1.406       .  A
C1387      C1392   1.410       .  A
C1387      C1395   1.499       .  S
C1388      C1389   1.404       .  A
C1388      H1397   1.083       .  S
C1389      C1390   1.408       .  A
C1389      H1398   1.082       .  S
C1390      C1391   1.406       .  A
C1390      C1393   1.496       .  S
C1391      C1392   1.404       .  A
C1391      H1399   1.083       .  S
C1392      H1400   1.081       .  S
C1393      H1401   1.087       .  S
C1393      C1394   1.350       .  D
C1394      H1402   1.085       .  S
C1395      H1403   1.087       .  S
C1395      C1396   1.349       .  D
C1396      H1404   1.085       .  S
C1405      C1406   1.407       .  A
C1405      C1410   1.408       .  A
C1405      C1413   1.496       .  S
C1406      C1407   1.402       .  A
C1406      H1415   1.084       .  S
C1407      C1408   1.409       .  A
C1407      H1416   1.080       .  S
C1408      C1409   1.407       .  A
C1408      C1411   1.499       .  S
C1409      C1410   1.402       .  A
C1409      H1417   1.083       .  S
C1410      H1418   1.080       .  S
C1411      H1419   1.087       .  S
C1411      C1412   1.351       .  D
C1412      H1420   1.083       .  S
C1413      H1421   1.087       .  S
C1413      C1414   1.351       .  D
C1414      H1422   1.083       .  S
C1423      C1424   1.410       .  A
C1423      C1428   1.408       .  A
C1423      C1431   1.504       .  S
C1424      C1425   1.406       .  A
C1424      H1433   1.083       .  S
C1425      C1426   1.408       .  A
C1425      H1434   1.081       .  S
C1426      C1427   1.409       .  A
C1426      C1429   1.505       .  S
C1427      C1428   1.406       .  A
C1427      H1435   1.083       .  S
C1428      H1436   1.080       .  S
C1429      H1437   1.087       .  S
C1429      C1430   1.357       .  D
C1430      H1438   1.084       .  S
C1431      H1439   1.087       .  S
C1431      C1432   1.356       .  D
C1432      H1440   1.083       .  S
C1441      C1442   1.407       .  A
C1441      C1446   1.411       .  A
C1441      C1449   1.506       .  S
C1442      C1443   1.404       .  A
C1442      H1451   1.083       .  S
C1443      C1444   1.410       .  A
C1443      H1452   1.081       .  S
C1444      C1445   1.409       .  A
C1444      C1447   1.509       .  S
C1445      C1446   1.410       .  A
C1445      H1453   1.083       .  S
C1446      H1454   1.081       .  S
C1447      H1455   1.086       .  S
C1447      C1448   1.354       .  D
C1448      H1456   1.083       .  S
C1449      H1457   1.087       .  S
C1449      C1450   1.355       .  D
C1450      H1458   1.083       .  S
C1459      C1460   1.408       .  A
C1459      C1464   1.409       .  A
C1459      C1467   1.504       .  S
C1460      C1461   1.406       .  A
C1460      H1469   1.084       .  S
C1461      C1462   1.410       .  A
C1461      H1470   1.080       .  S
C1462      C1463   1.409       .  A
C1462      C1465   1.506       .  S
C1463      C1464   1.406       .  A
C1463      H1471   1.083       .  S
C1464      H1472   1.081       .  S
C1465      H1473   1.087       .  S
C1465      C1466   1.355       .  D
C1466      H1474   1.080       .  S
C1467      H1475   1.087       .  S
C1467      C1468   1.354       .  D
C1468      H1476   1.084       .  S
C1477      C1478   1.406       .  A
C1477      C1482   1.411       .  A
C1477      C1485   1.507       .  S
C1478      C1479   1.406       .  A
C1478      H1487   1.084       .  S
C1479      C1480   1.412       .  A
C1479      H1488   1.080       .  S
C1480      C1481   1.407       .  A
C1480      C1483   1.508       .  S
C1481      C1482   1.407       .  A
C1481      H1489   1.083       .  S
C1482      H1490   1.081       .  S
C1483      H1491   1.086       .  S
C1483      C1484   1.353       .  D
C1484      H1492   1.084       .  S
C1485      H1493   1.087       .  S
C1485      C1486   1.350       .  D
C1486      H1494   1.085       .  S
C1495      C1496   1.405       .  A
C1495      C1500   1.403       .  A
C1495      C1503   1.472       .  S
C1496      C1497   1.397       .  A
C1496      H1505   1.081       .  S
C1497      C1498   1.408       .  A
C1497      H1506   1.082       .  S
C1498      C1499   1.397       .  A
C1498      C1501   1.469       .  S
C1499      C1500   1.388       .  A
C1499      H1507   1.084       .  S
C1500      H1508   1.084       .  S
C1501      H1509   1.088       .  S
C1501      C1502   1.337       .  D
C1502      H1510   1.085       .  S
C1503      H1511   1.089       .  S
C1503      C1504   1.346       .  D
C1504      H1512   1.084       .  S
C1513      C1514   1.406       .  A
C1513      C1518   1.397       .  A
C1513      C1521   1.468       .  S
C1514      C1515   1.395       .  A
C1514      H1523   1.082       .  S
C1515      C1516   1.405       .  A
C1515      H1524   1.080       .  S
C1516      C1517   1.403       .  A
C1516      C1519   1.473       .  S
C1517      C1518   1.389       .  A
C1517      H1525   1.084       .  S
C1518      H1526   1.084       .  S
C1519      H1527   1.088       .  S
C1519      C1520   1.346       .  D
C1520      H1528   1.083       .  S
C1521      H1529   1.088       .  S
C1521      C1522   1.339       .  D
C1522      H1530   1.086       .  S
C1531      C1532   1.402       .  A
C1531      C1536   1.405       .  A
C1531      C1539   1.471       .  S
C1532      C1533   1.393       .  A
C1532      H1541   1.083       .  S
C1533      C1534   1.401       .  A
C1533      H1542   1.084       .  S
C1534      C1535   1.405       .  A
C1534      C1537   1.472       .  S
C1535      C1536   1.391       .  A
C1535      H1543   1.081       .  S
C1536      H1544   1.081       .  S
C1537      H1545   1.088       .  S
C1537      C1538   1.344       .  D
C1538      H1546   1.084       .  S
C1539      H1547   1.088       .  S
C1539      C1540   1.342       .  D
C1540      H1548   1.084       .  S
C1549      C1550   1.407       .  A
C1549      C1554   1.411       .  A
C1549      C1557   1.504       .  S
C1550      C1551   1.405       .  A
C1550      H1559   1.083       .  S
C1551      C1552   1.410       .  A
C1551      H1560   1.082       .  S
C1552      C1553   1.405       .  A
C1552      C1555   1.502       .  S
C1553      C1554   1.404       .  A
C1553      H1561   1.083       .  S
C1554      H1562   1.080   1_545  S
C1555      H1563   1.087   1_545  S
C1555      C1556   1.350       .  D
C1556      H1564   1.084       .  S
C1557      H1565   1.085       .  S
C1557      C1558   1.353       .  D
C1558      H1566   1.083       .  S
C1567      C1568   1.407       .  A
C1567      C1572   1.406       .  A
C1567      C1575   1.498       .  S
C1568      C1569   1.406       .  A
C1568      H1577   1.084       .  S
C1569      C1570   1.409       .  A
C1569      H1578   1.080       .  S
C1570      C1571   1.409       .  A
C1570      C1573   1.502       .  S
C1571      C1572   1.403       .  A
C1571      H1579   1.083       .  S
C1572      H1580   1.082       .  S
C1573      H1581   1.087       .  S
C1573      C1574   1.356       .  D
C1574      H1582   1.083       .  S
C1575      H1583   1.088       .  S
C1575      C1576   1.354       .  D
C1576      H1584   1.082       .  S
C1585      C1586   1.397       .  A
C1585      C1590   1.408       .  A
C1585      C1593   1.471       .  S
C1586      C1587   1.387       .  A
C1586      H1595   1.084       .  S
C1587      C1588   1.407       .  A
C1587      H1596   1.082       .  S
C1588      C1589   1.401       .  A
C1588      C1591   1.477       .  S
C1589      C1590   1.399       .  A
C1589      H1597   1.083       .  S
C1590      H1598   1.081       .  S
C1591      H1599   1.087       .  S
C1591      C1592   1.339       .  D
C1592      H1600   1.086       .  S
C1593      H1601   1.089       .  S
C1593      C1594   1.340       .  D
C1594      H1602   1.086       .  S
C1603      C1604   1.404       .  A
C1603      C1608   1.397       .  A
C1603      C1611   1.458       .  S
C1604      C1605   1.392       .  A
C1604      H1613   1.083       .  S
C1605      C1606   1.399       .  A
C1605      H1614   1.084       .  S
C1606      C1607   1.403       .  A
C1606      C1609   1.459       .  S
C1607      C1608   1.389       .  A
C1607      H1615   1.083       .  S
C1608      H1616   1.084       .  S
C1609      H1617   1.087       .  S
C1609      C1610   1.336       .  D
C1610      H1618   1.087       .  S
C1611      H1619   1.088       .  S
C1611      C1612   1.336       .  D
C1612      H1620   1.087       .  S
C1621      C1622   1.404       .  A
C1621      C1626   1.401       .  A
C1621      C1629   1.470       .  S
C1622      C1623   1.394       .  A
C1622      H1631   1.083       .  S
C1623      C1624   1.402       .  A
C1623      H1632   1.084       .  S
C1624      C1625   1.404       .  A
C1624      C1627   1.470       .  S
C1625      C1626   1.393       .  A
C1625      H1633   1.082       .  S
C1626      H1634   1.084       .  S
C1627      H1635   1.089       .  S
C1627      C1628   1.340       .  D
C1628      H1636   1.086       .  S
C1629      H1637   1.088       .  S
C1629      C1630   1.340       .  D
C1630      H1638   1.086       .  S
C1639      C1640   1.402       .  A
C1639      C1644   1.404       .  A
C1639      C1647   1.469       .  S
C1640      C1641   1.392       .  A
C1640      H1649   1.084       .  S
C1641      C1642   1.403       .  A
C1641      H1650   1.082       .  S
C1642      C1643   1.401       .  A
C1642      C1645   1.468       .  S
C1643      C1644   1.392       .  A
C1643      H1651   1.084       .  S
C1644      H1652   1.082       .  S
C1645      H1653   1.088       .  S
C1645      C1646   1.339       .  D
C1646      H1654   1.085       .  S
C1647      H1655   1.089       .  S
C1647      C1648   1.340       .  D
C1648      H1656   1.085       .  S
C1657      C1658   1.404       .  A
C1657      C1662   1.410       .  A
C1657      C1665   1.496       .  S
C1658      C1659   1.402       .  A
C1658      H1667   1.083       .  S
C1659      C1660   1.411       .  A
C1659      H1668   1.080       .  S
C1660      C1661   1.404       .  A
C1660      C1663   1.498       .  S
C1661      C1662   1.401       .  A
C1661      H1669   1.083       .  S
C1662      H1670   1.082       .  S
C1663      H1671   1.087       .  S
C1663      C1664   1.347       .  D
C1664      H1672   1.083       .  S
C1665      H1673   1.086       .  S
C1665      C1666   1.347       .  D
C1666      H1674   1.085       .  S
C1675      C1676   1.406       .  A
C1675      C1680   1.408       .  A
C1675      C1683   1.497       .  S
C1676      C1677   1.401       .  A
C1676      H1685   1.083       .  S
C1677      C1678   1.404       .  A
C1677      H1686   1.084       .  S
C1678      C1679   1.412       .  A
C1678      C1681   1.499       .  S
C1679      C1680   1.407       .  A
C1679      H1687   1.081       .  S
C1680      H1688   1.081       .  S
C1681      H1689   1.086       .  S
C1681      C1682   1.351       .  D
C1682      H1690   1.084       .  S
C1683      H1691   1.087       .  S
C1683      C1684   1.355       .  D
C1684      H1692   1.085       .  S
C1693      C1694   1.408       .  A
C1693      C1698   1.409       .  A
C1693      C1701   1.501       .  S
C1694      C1695   1.403       .  A
C1694      H1703   1.083       .  S
C1695      C1696   1.408       .  A
C1695      H1704   1.081       .  S
C1696      C1697   1.405       .  A
C1696      C1699   1.497       .  S
C1697      C1698   1.402       .  A
C1697      H1705   1.083       .  S
C1698      H1706   1.079       .  S
C1699      H1707   1.087       .  S
C1699      C1700   1.351       .  D
C1700      H1708   1.082       .  S
C1701      H1709   1.087       .  S
C1701      C1702   1.352       .  D
C1702      H1710   1.082       .  S
C1711      C1712   1.405       .  A
C1711      C1716   1.407       .  A
C1711      C1719   1.491       .  S
C1712      C1713   1.401       .  A
C1712      H1721   1.084       .  S
C1713      C1714   1.409       .  A
C1713      H1722   1.079       .  S
C1714      C1715   1.405       .  A
C1714      C1717   1.493       .  S
C1715      C1716   1.399       .  A
C1715      H1723   1.083       .  S
C1716      H1724   1.081       .  S
C1717      H1725   1.087       .  S
C1717      C1718   1.349       .  D
C1718      H1726   1.083       .  S
C1719      H1727   1.088       .  S
C1719      C1720   1.347       .  D
C1720      H1728   1.084       .  S
C1729      C1730   1.411       .  A
C1729      C1734   1.403       .  A
C1729      C1737   1.494       .  S
C1730      C1731   1.402       .  A
C1730      H1739   1.081       .  S
C1731      C1732   1.409       .  A
C1731      H1740   1.080       .  S
C1732      C1733   1.405       .  A
C1732      C1735   1.494       .  S
C1733      C1734   1.400       .  A
C1733      H1741   1.084       .  S
C1734      H1742   1.083       .  S
C1735      H1743   1.087       .  S
C1735      C1736   1.348       .  D
C1736      H1744   1.083       .  S
C1737      H1745   1.086       .  S
C1737      C1738   1.346       .  D
C1738      H1746   1.084       .  S
C1747      C1748   1.406       .  A
C1747      C1752   1.410       .  A
C1747      C1755   1.495       .  S
C1748      C1749   1.403       .  A
C1748      H1757   1.083       .  S
C1749      C1750   1.408       .  A
C1749      H1758   1.082       .  S
C1750      C1751   1.402       .  A
C1750      C1753   1.488       .  S
C1751      C1752   1.398       .  A
C1751      H1759   1.084       .  S
C1752      H1760   1.080       .  S
C1753      H1761   1.087       .  S
C1753      C1754   1.346       .  D
C1754      H1762   1.085       .  S
C1755      H1763   1.087       .  S
C1755      C1756   1.348       .  D
C1756      H1764   1.083       .  S
C1765      C1766   1.404       .  A
C1765      C1770   1.409       .  A
C1765      C1773   1.483       .  S
C1766      C1767   1.392       .  A
C1766      H1775   1.084       .  S
C1767      C1768   1.402       .  A
C1767      H1776   1.083       .  S
C1768      C1769   1.402       .  A
C1768      C1771   1.477       .  S
C1769      C1770   1.401       .  A
C1769      H1777   1.083       .  S
C1770      H1778   1.081       .  S
C1771      H1779   1.087       .  S
C1771      C1772   1.342       .  D
C1772      H1780   1.087       .  S
C1773      H1781   1.088       .  S
C1773      C1774   1.346       .  D
C1774      H1782   1.084       .  S
C1783      C1784   1.400       .  A
C1783      C1788   1.403       .  A
C1783      C1791   1.461       .  S
C1784      C1785   1.389       .  A
C1784      H1793   1.084       .  S
C1785      C1786   1.403       .  A
C1785      H1794   1.082       .  S
C1786      C1787   1.400       .  A
C1786      C1789   1.462       .  S
C1787      C1788   1.391       .  A
C1787      H1795   1.084       .  S
C1788      H1796   1.083       .  S
C1789      H1797   1.089       .  S
C1789      C1790   1.339       .  D
C1790      H1798   1.086       .  S
C1791      H1799   1.088       .  S
C1791      C1792   1.340       .  D
C1792      H1800   1.086       .  S
C1801      C1802   1.401       .  A
C1801      C1806   1.403       .  A
C1801      C1809   1.465       .  S
C1802      C1803   1.393       .  A
C1802      H1811   1.084       .  S
C1803      C1804   1.403       .  A
C1803      H1812   1.083       .  S
C1804      C1805   1.399       .  A
C1804      C1807   1.460       .  S
C1805      C1806   1.390       .  A
C1805      H1813   1.083       .  S
C1806      H1814   1.083       .  S
C1807      H1815   1.088       .  S
C1807      C1808   1.337       .  D
C1808      H1816   1.087       .  S
C1809      H1817   1.088       .  S
C1809      C1810   1.339       .  D
C1810      H1818   1.086       .  S
C1819      C1820   1.407       .  A
C1819      C1824   1.409       .  A
C1819      C1827   1.502       .  S
C1820      C1821   1.405       .  A
C1820      H1829   1.083       .  S
C1821      C1822   1.410       .  A
C1821      H1830   1.080       .  S
C1822      C1823   1.408       .  A
C1822      C1825   1.505       .  S
C1823      C1824   1.405       .  A
C1823      H1831   1.083       .  S
C1824      H1832   1.081       .  S
C1825      H1833   1.087       .  S
C1825      C1826   1.353       .  D
C1826      H1834   1.083   1_554  S
C1827      H1835   1.087       .  S
C1827      C1828   1.352       .  D
C1828      H1836   1.084       .  S
C1837      C1838   1.407       .  A
C1837      C1842   1.408       .  A
C1837      C1845   1.499       .  S
C1838      C1839   1.403       .  A
C1838      H1847   1.083       .  S
C1839      C1840   1.410       .  A
C1839      H1848   1.080       .  S
C1840      C1841   1.407       .  A
C1840      C1843   1.502       .  S
C1841      C1842   1.403       .  A
C1841      H1849   1.083       .  S
C1842      H1850   1.080       .  S
C1843      H1851   1.087       .  S
C1843      C1844   1.352       .  D
C1844      H1852   1.083       .  S
C1845      H1853   1.088       .  S
C1845      C1846   1.352       .  D
C1846      H1854   1.082       .  S
C1855      C1856   1.406       .  A
C1855      C1860   1.410       .  A
C1855      C1863   1.497       .  S
C1856      C1857   1.401       .  A
C1856      H1865   1.083       .  S
C1857      C1858   1.407       .  A
C1857      H1866   1.081       .  S
C1858      C1859   1.405       .  A
C1858      C1861   1.494       .  S
C1859      C1860   1.402       .  A
C1859      H1867   1.083       .  S
C1860      H1868   1.080       .  S
C1861      H1869   1.087       .  S
C1861      C1862   1.350       .  D
C1862      H1870   1.082       .  S
C1863      H1871   1.087       .  S
C1863      C1864   1.350       .  D
C1864      H1872   1.082       .  S
C1873      C1874   1.405       .  A
C1873      C1878   1.411       .  A
C1873      C1881   1.502       .  S
C1874      C1875   1.404       .  A
C1874      H1883   1.083       .  S
C1875      C1876   1.410       .  A
C1875      H1884   1.081       .  S
C1876      C1877   1.406       .  A
C1876      C1879   1.501       .  S
C1877      C1878   1.404       .  A
C1877      H1885   1.083       .  S
C1878      H1886   1.081       .  S
C1879      H1887   1.087       .  S
C1879      C1880   1.351       .  D
C1880      H1888   1.083       .  S
C1881      H1889   1.086       .  S
C1881      C1882   1.350       .  D
C1882      H1890   1.084       .  S
C1891      C1892   1.404       .  A
C1891      C1896   1.411       .  A
C1891      C1899   1.500       .  S
C1892      C1893   1.400       .  A
C1892      H1901   1.084       .  S
C1893      C1894   1.411       .  A
C1893      H1902   1.079       .  S
C1894      C1895   1.407       .  A
C1894      C1897   1.504       .  S
C1895      C1896   1.407       .  A
C1895      H1903   1.083       .  S
C1896      H1904   1.081       .  S
C1897      H1905   1.086       .  S
C1897      C1898   1.352       .  D
C1898      H1906   1.078       .  S
C1899      H1907   1.087       .  S
C1899      C1900   1.348       .  D
C1900      H1908   1.084       .  S
C1909      C1910   1.409       .  A
C1909      C1914   1.409       .  A
C1909      C1917   1.509       .  S
C1910      C1911   1.407       .  A
C1910      H1919   1.083       .  S
C1911      C1912   1.409       .  A
C1911      H1920   1.081       .  S
C1912      C1913   1.410       .  A
C1912      C1915   1.509       .  S
C1913      C1914   1.408       .  A
C1913      H1921   1.083       .  S
C1914      H1922   1.081       .  S
C1915      H1923   1.087       .  S
C1915      C1916   1.358       .  D
C1916      H1924   1.079       .  S
C1917      H1925   1.087       .  S
C1917      C1918   1.357       .  D
C1918      H1926   1.084       .  S
C1927      C1928   1.407       .  A
C1927      C1932   1.410       .  A
C1927      C1935   1.505       .  S
C1928      C1929   1.406       .  A
C1928      H1937   1.083       .  S
C1929      C1930   1.412       .  A
C1929      H1938   1.080       .  S
C1930      C1931   1.407       .  A
C1930      C1933   1.505       .  S
C1931      C1932   1.404       .  A
C1931      H1939   1.084       .  S
C1932      H1940   1.080       .  S
C1933      H1941   1.083       .  S
C1933      C1934   1.352       .  D
C1934      H1942   1.083       .  S
C1935      H1943   1.087       .  S
C1935      C1936   1.352       .  D
C1936      H1944   1.083       .  S
C1945      C1946   1.408       .  A
C1945      C1950   1.408       .  A
C1945      C1953   1.499       .  S
C1946      C1947   1.405       .  A
C1946      H1955   1.083       .  S
C1947      C1948   1.406       .  A
C1947      H1956   1.083       .  S
C1948      C1949   1.405       .  A
C1948      C1951   1.493       .  S
C1949      C1950   1.403       .  A
C1949      H1957   1.083       .  S
C1950      H1958   1.082       .  S
C1951      H1959   1.087       .  S
C1951      C1952   1.351       .  D
C1952      H1960   1.085       .  S
C1953      H1961   1.087       .  S
C1953      C1954   1.352       .  D
C1954      H1962   1.084       .  S
C1963      C1964   1.409       .  A
C1963      C1968   1.405       .  A
C1963      C1971   1.488       .  S
C1964      C1965   1.406       .  A
C1964      H1973   1.081       .  S
C1965      C1966   1.409       .  A
C1965      H1974   1.082       .  S
C1966      C1967   1.400       .  A
C1966      C1969   1.482       .  S
C1967      C1968   1.392       .  A
C1967      H1975   1.084       .  S
C1968      H1976   1.083       .  S
C1969      H1977   1.088       .  S
C1969      C1970   1.346       .  D
C1970      H1978   1.085       .  S
C1971      H1979   1.087       .  S
C1971      C1972   1.352       .  D
C1972      H1980   1.083       .  S
C1981      C1982   1.402       .  A
C1981      C1986   1.410       .  A
C1981      C1989   1.479       .  S
C1982      C1983   1.392       .  A
C1982      H1991   1.083       .  S
C1983      C1984   1.405       .  A
C1983      H1992   1.084       .  S
C1984      C1985   1.398       .  A
C1984      C1987   1.472       .  S
C1985      C1986   1.396       .  A
C1985      H1993   1.084       .  S
C1986      H1994   1.080       .  S
C1987      H1995   1.087       .  S
C1987      C1988   1.338       .  D
C1988      H1996   1.088       .  S
C1989      H1997   1.087       .  S
C1989      C1990   1.343       .  D
C1990      H1998   1.083       .  S
C1999      C2000   1.401       .  A
C1999      C2004   1.405       .  A
C1999      C2007   1.477       .  S
C2000      C2001   1.402       .  A
C2000      H2009   1.083       .  S
C2001      C2002   1.410       .  A
C2001      H2010   1.082       .  S
C2002      C2003   1.397       .  A
C2002      C2005   1.474       .  S
C2003      C2004   1.388       .  A
C2003      H2011   1.084       .  S
C2004      H2012   1.083       .  S
C2005      H2013   1.088       .  S
C2005      C2006   1.338       .  D
C2006      H2014   1.086       .  S
C2007      H2015   1.086   1_455  S
C2007      C2008   1.342       .  D
C2008      H2016   1.087       .  S
C2017      C2018   1.409       .  A
C2017      C2022   1.409       .  A
C2017      C2025   1.504       .  S
C2018      C2019   1.407       .  A
C2018      H2027   1.083       .  S
C2019      C2020   1.409       .  A
C2019      H2028   1.081       .  S
C2020      C2021   1.406       .  A
C2020      C2023   1.501       .  S
C2021      C2022   1.401       .  A
C2021      H2029   1.083       .  S
C2022      H2030   1.080       .  S
C2023      H2031   1.087       .  S
C2023      C2024   1.354       .  D
C2024      H2032   1.083   1_655  S
C2025      H2033   1.087       .  S
C2025      C2026   1.353       .  D
C2026      H2034   1.080       .  S
C2035      C2036   1.407       .  A
C2035      C2040   1.409       .  A
C2035      C2043   1.499       .  S
C2036      C2037   1.402       .  A
C2036      H2045   1.083       .  S
C2037      C2038   1.405       .  A
C2037      H2046   1.083       .  S
C2038      C2039   1.410       .  A
C2038      C2041   1.500       .  S
C2039      C2040   1.404       .  A
C2039      H2047   1.081       .  S
C2040      H2048   1.080       .  S
C2041      H2049   1.087       .  S
C2041      C2042   1.348       .  D
C2042      H2050   1.085       .  S
C2043      H2051   1.087       .  S
C2043      C2044   1.352       .  D
C2044      H2052   1.083       .  S
C2053      C2054   1.409       .  A
C2053      C2058   1.408       .  A
C2053      C2061   1.502       .  S
C2054      C2055   1.405       .  A
C2054      H2063   1.083       .  S
C2055      C2056   1.407       .  A
C2055      H2064   1.081       .  S
C2056      C2057   1.409       .  A
C2056      C2059   1.503       .  S
C2057      C2058   1.406       .  A
C2057      H2065   1.083       .  S
C2058      H2066   1.080       .  S
C2059      H2067   1.087       .  S
C2059      C2060   1.356       .  D
C2060      H2068   1.084       .  S
C2061      H2069   1.087       .  S
C2061      C2062   1.355       .  D
C2062      H2070   1.083       .  S
C2071      C2072   1.396       .  A
C2071      C2076   1.408       .  A
C2071      C2079   1.466       .  S
C2072      C2073   1.386       .  A
C2072      H2081   1.084       .  S
C2073      C2074   1.407       .  A
C2073      H2082   1.082       .  S
C2074      C2075   1.399       .  A
C2074      C2077   1.470       .  S
C2075      C2076   1.396       .  A
C2075      H2083   1.084       .  S
C2076      H2084   1.082       .  S
C2077      H2085   1.087       .  S
C2077      C2078   1.337       .  D
C2078      H2086   1.086       .  S
C2079      H2087   1.088       .  S
C2079      C2080   1.335       .  D
C2080      H2088   1.085       .  S
C2089      C2090   1.403       .  A
C2089      C2094   1.405       .  A
C2089      C2097   1.477       .  S
C2090      C2091   1.396       .  A
C2090      H2099   1.084       .  S
C2091      C2092   1.404       .  A
C2091      H2100   1.082       .  S
C2092      C2093   1.402       .  A
C2092      C2095   1.472       .  S
C2093      C2094   1.394       .  A
C2093      H2101   1.084       .  S
C2094      H2102   1.082       .  S
C2095      H2103   1.089       .  S
C2095      C2096   1.342       .  D
C2096      H2104   1.085       .  S
C2097      H2105   1.088       .  S
C2097      C2098   1.342       .  D
C2098      H2106   1.086       .  S
C2107      C2108   1.408       .  A
C2107      C2112   1.407       .  A
C2107      C2115   1.496       .  S
C2108      C2109   1.402       .  A
C2108      H2117   1.084       .  S
C2109      C2110   1.407       .  A
C2109      H2118   1.080       .  S
C2110      C2111   1.407       .  A
C2110      C2113   1.495       .  S
C2111      C2112   1.401       .  A
C2111      H2119   1.084       .  S
C2112      H2120   1.079       .  S
C2113      H2121   1.087       .  S
C2113      C2114   1.355       .  D
C2114      H2122   1.083       .  S
C2115      H2123   1.088       .  S
C2115      C2116   1.351       .  D
C2116      H2124   1.082       .  S
C2125      C2126   1.408       .  A
C2125      C2130   1.405       .  A
C2125      C2133   1.495       .  S
C2126      C2127   1.403       .  A
C2126      H2135   1.081       .  S
C2127      C2128   1.412       .  A
C2127      H2136   1.080       .  S
C2128      C2129   1.404       .  A
C2128      C2131   1.498       .  S
C2129      C2130   1.400       .  A
C2129      H2137   1.083       .  S
C2130      H2138   1.084       .  S
C2131      H2139   1.087       .  S
C2131      C2132   1.347       .  D
C2132      H2140   1.083       .  S
C2133      H2141   1.087       .  S
C2133      C2134   1.350       .  D
C2134      H2142   1.084       .  S
C2143      C2144   1.407       .  A
C2143      C2148   1.410       .  A
C2143      C2151   1.502       .  S
C2144      C2145   1.405       .  A
C2144      H2153   1.083       .  S
C2145      C2146   1.409       .  A
C2145      H2154   1.081       .  S
C2146      C2147   1.405       .  A
C2146      C2149   1.499       .  S
C2147      C2148   1.403       .  A
C2147      H2155   1.084       .  S
C2148      H2156   1.080       .  S
C2149      H2157   1.087       .  S
C2149      C2150   1.351       .  D
C2150      H2158   1.085       .  S
C2151      H2159   1.087       .  S
C2151      C2152   1.352       .  D
C2152      H2160   1.083       .  S
C2161      C2162   1.406       .  A
C2161      C2166   1.406       .  A
C2161      C2169   1.495       .  S
C2162      C2163   1.403       .  A
C2162      H2171   1.083       .  S
C2163      C2164   1.409       .  A
C2163      H2172   1.079       .  S
C2164      C2165   1.408       .  A
C2164      C2167   1.501       .  S
C2165      C2166   1.403       .  A
C2165      H2173   1.083       .  S
C2166      H2174   1.082       .  S
C2167      H2175   1.087       .  S
C2167      C2168   1.354       .  D
C2168      H2176   1.082       .  S
C2169      H2177   1.087       .  S
C2169      C2170   1.351       .  D
C2170      H2178   1.083       .  S
C2179      C2180   1.405       .  A
C2179      C2184   1.410       .  A
C2179      C2187   1.501       .  S
C2180      C2181   1.402       .  A
C2180      H2189   1.084       .  S
C2181      C2182   1.411       .  A
C2181      H2190   1.080       .  S
C2182      C2183   1.407       .  A
C2182      C2185   1.502       .  S
C2183      C2184   1.405       .  A
C2183      H2191   1.084       .  S
C2184      H2192   1.080       .  S
C2185      H2193   1.086       .  S
C2185      C2186   1.352       .  D
C2186      H2194   1.083       .  S
C2187      H2195   1.088       .  S
C2187      C2188   1.349       .  D
C2188      H2196   1.085       .  S
C2197      C2198   1.405       .  A
C2197      C2202   1.408       .  A
C2197      C2205   1.496       .  S
C2198      C2199   1.403       .  A
C2198      H2207   1.083       .  S
C2199      C2200   1.409       .  A
C2199      H2208   1.080       .  S
C2200      C2201   1.405       .  A
C2200      C2203   1.494       .  S
C2201      C2202   1.399       .  A
C2201      H2209   1.084       .  S
C2202      H2210   1.080       .  S
C2203      H2211   1.088       .  S
C2203      C2204   1.350       .  D
C2204      H2212   1.082       .  S
C2205      H2213   1.087       .  S
C2205      C2206   1.349       .  D
C2206      H2214   1.083       .  S
C2215      C2216   1.407       .  A
C2215      C2220   1.412       .  A
C2215      C2223   1.510       .  S
C2216      C2217   1.406       .  A
C2216      H2225   1.083       .  S
C2217      C2218   1.411       .  A
C2217      H2226   1.080       .  S
C2218      C2219   1.407       .  A
C2218      C2221   1.508       .  S
C2219      C2220   1.407       .  A
C2219      H2227   1.084       .  S
C2220      H2228   1.080       .  S
C2221      H2229   1.085       .  S
C2221      C2222   1.355       .  D
C2222      H2230   1.083       .  S
C2223      H2231   1.087       .  S
C2223      C2224   1.352       .  D
C2224      H2232   1.083       .  S
C2233      C2234   1.409       .  A
C2233      C2238   1.407       .  A
C2233      C2241   1.498       .  S
C2234      C2235   1.403       .  A
C2234      H2243   1.080       .  S
C2235      C2236   1.411       .  A
C2235      H2244   1.082       .  S
C2236      C2237   1.403       .  A
C2236      C2239   1.497       .  S
C2237      C2238   1.402       .  A
C2237      H2245   1.083       .  S
C2238      H2246   1.083       .  S
C2239      H2247   1.086       .  S
C2239      C2240   1.346       .  D
C2240      H2248   1.084       .  S
C2241      H2249   1.087       .  S
C2241      C2242   1.352       .  D
C2242      H2250   1.080       .  S
C2251      C2252   1.402       .  A
C2251      C2256   1.406       .  A
C2251      C2259   1.472       .  S
C2252      C2253   1.391       .  A
C2252      H2261   1.083       .  S
C2253      C2254   1.403       .  A
C2253      H2262   1.082       .  S
C2254      C2255   1.401       .  A
C2254      C2257   1.469       .  S
C2255      C2256   1.393       .  A
C2255      H2263   1.084       .  S
C2256      H2264   1.081       .  S
C2257      H2265   1.089       .  S
C2257      C2258   1.340       .  D
C2258      H2266   1.085       .  S
C2259      H2267   1.088       .  S
C2259      C2260   1.340       .  D
C2260      H2268   1.083       .  S
C2269      C2270   1.402       .  A
C2269      C2274   1.402       .  A
C2269      C2277   1.474       .  S
C2270      C2271   1.400       .  A
C2270      H2279   1.083       .  S
C2271      C2272   1.408       .  A
C2271      H2280   1.081       .  S
C2272      C2273   1.402       .  A
C2272      C2275   1.477       .  S
C2273      C2274   1.389       .  A
C2273      H2281   1.083       .  S
C2274      H2282   1.084       .  S
C2275      H2283   1.088       .  S
C2275      C2276   1.343       .  D
C2276      H2284   1.084       .  S
C2277      H2285   1.087       .  S
C2277      C2278   1.341       .  D
C2278      H2286   1.087       .  S
C2287      C2288   1.400       .  A
C2287      C2292   1.406       .  A
C2287      C2295   1.472       .  S
C2288      C2289   1.393       .  A
C2288      H2297   1.084       .  S
C2289      C2290   1.402       .  A
C2289      H2298   1.084       .  S
C2290      C2291   1.404       .  A
C2290      C2293   1.473       .  S
C2291      C2292   1.391       .  A
C2291      H2299   1.081       .  S
C2292      H2300   1.081       .  S
C2293      H2301   1.087       .  S
C2293      C2294   1.345       .  D
C2294      H2302   1.083       .  S
C2295      H2303   1.088       .  S
C2295      C2296   1.339       .  D
C2296      H2304   1.085       .  S
C2305      C2306   1.404       .  A
C2305      C2310   1.405       .  A
C2305      C2313   1.482       .  S
C2306      C2307   1.397       .  A
C2306      H2315   1.084       .  S
C2307      C2308   1.405       .  A
C2307      H2316   1.083       .  S
C2308      C2309   1.406       .  A
C2308      C2311   1.487       .  S
C2309      C2310   1.405       .  A
C2309      H2317   1.083       .  S
C2310      H2318   1.083       .  S
C2311      H2319   1.082       .  S
C2311      C2312   1.349       .  D
C2312      H2320   1.087       .  S
C2313      H2321   1.088       .  S
C2313      C2314   1.350       .  D
C2314      H2322   1.086       .  S
C2323      C2324   1.406       .  A
C2323      C2328   1.408       .  A
C2323      C2331   1.496       .  S
C2324      C2325   1.401       .  A
C2324      H2333   1.083       .  S
C2325      C2326   1.409       .  A
C2325      H2334   1.081       .  S
C2326      C2327   1.406       .  A
C2326      C2329   1.497       .  S
C2327      C2328   1.404       .  A
C2327      H2335   1.083       .  S
C2328      H2336   1.080       .  S
C2329      H2337   1.087       .  S
C2329      C2330   1.350       .  D
C2330      H2338   1.084       .  S
C2331      H2339   1.088       .  S
C2331      C2332   1.350       .  D
C2332      H2340   1.083       .  S
C2341      C2342   1.405       .  A
C2341      C2346   1.410       .  A
C2341      C2349   1.497       .  S
C2342      C2343   1.404       .  A
C2342      H2351   1.083       .  S
C2343      C2344   1.411       .  A
C2343      H2352   1.081       .  S
C2344      C2345   1.403       .  A
C2344      C2347   1.496       .  S
C2345      C2346   1.399       .  A
C2345      H2353   1.083       .  S
C2346      H2354   1.081       .  S
C2347      H2355   1.086       .  S
C2347      C2348   1.346       .  D
C2348      H2356   1.084       .  S
C2349      H2357   1.086       .  S
C2349      C2350   1.348       .  D
C2350      H2358   1.084       .  S
C2359      C2360   1.404       .  A
C2359      C2364   1.407       .  A
C2359      C2367   1.489       .  S
C2360      C2361   1.400       .  A
C2360      H2369   1.083       .  S
C2361      C2362   1.408       .  A
C2361      H2370   1.081       .  S
C2362      C2363   1.404       .  A
C2362      C2365   1.489       .  S
C2363      C2364   1.399       .  A
C2363      H2371   1.084       .  S
C2364      H2372   1.081       .  S
C2365      H2373   1.087       .  S
C2365      C2366   1.347       .  D
C2366      H2374   1.085       .  S
C2367      H2375   1.087       .  S
C2367      C2368   1.347       .  D
C2368      H2376   1.085       .  S
C2377      C2378   1.406       .  A
C2377      C2382   1.407       .  A
C2377      C2385   1.492       .  S
C2378      C2379   1.401       .  A
C2378      H2387   1.083       .  S
C2379      C2380   1.404       .  A
C2379      H2388   1.084       .  S
C2380      C2381   1.406       .  A
C2380      C2383   1.489       .  S
C2381      C2382   1.406       .  A
C2381      H2389   1.083       .  S
C2382      H2390   1.082       .  S
C2383      H2391   1.083       .  S
C2383      C2384   1.350       .  D
C2384      H2392   1.087       .  S
C2385      H2393   1.087       .  S
C2385      C2386   1.350       .  D
C2386      H2394   1.086       .  S
C2395      C2396   1.404       .  A
C2395      C2400   1.409       .  A
C2395      C2403   1.495       .  S
C2396      C2397   1.401       .  A
C2396      H2405   1.084       .  S
C2397      C2398   1.409       .  A
C2397      H2406   1.080       .  S
C2398      C2399   1.406       .  A
C2398      C2401   1.497       .  S
C2399      C2400   1.403       .  A
C2399      H2407   1.083       .  S
C2400      H2408   1.082       .  S
C2401      H2409   1.087       .  S
C2401      C2402   1.350       .  D
C2402      H2410   1.083       .  S
C2403      H2411   1.087       .  S
C2403      C2404   1.348       .  D
C2404      H2412   1.081       .  S
C2413      C2414   1.404       .  A
C2413      C2418   1.402       .  A
C2413      C2421   1.469       .  S
C2414      C2415   1.392       .  A
C2414      H2423   1.083       .  S
C2415      C2416   1.400       .  A
C2415      H2424   1.083       .  S
C2416      C2417   1.404       .  A
C2416      C2419   1.468       .  S
C2417      C2418   1.394       .  A
C2417      H2425   1.083       .  S
C2418      H2426   1.084       .  S
C2419      H2427   1.088       .  S
C2419      C2420   1.338       .  D
C2420      H2428   1.086       .  S
C2421      H2429   1.089       .  S
C2421      C2422   1.340       .  D
C2422      H2430   1.086       .  S
C2431      C2432   1.396       .  A
C2431      C2436   1.406       .  A
C2431      C2439   1.466       .  S
C2432      C2433   1.385       .  A
C2432      H2441   1.084       .  S
C2433      C2434   1.409       .  A
C2433      H2442   1.080       .  S
C2434      C2435   1.400       .  A
C2434      C2437   1.475       .  S
C2435      C2436   1.395       .  A
C2435      H2443   1.083       .  S
C2436      H2444   1.081       .  S
C2437      H2445   1.088       .  S
C2437      C2438   1.335       .  D
C2438      H2446   1.083       .  S
C2439      H2447   1.088       .  S
C2439      C2440   1.339       .  D
C2440      H2448   1.085       .  S
C2449      C2450   1.403       .  A
C2449      C2454   1.403       .  A
C2449      C2457   1.469       .  S
C2450      C2451   1.396       .  A
C2450      H2459   1.083       .  S
C2451      C2452   1.403       .  A
C2451      H2460   1.083       .  S
C2452      C2453   1.399       .  A
C2452      C2455   1.465       .  S
C2453      C2454   1.390       .  A
C2453      H2461   1.084       .  S
C2454      H2462   1.082       .  S
C2455      H2463   1.089       .  S
C2455      C2456   1.339       .  D
C2456      H2464   1.087       .  S
C2457      H2465   1.088       .  S
C2457      C2458   1.341       .  D
C2458      H2466   1.086       .  S
C2467      C2468   1.406       .  A
C2467      C2472   1.410       .  A
C2467      C2475   1.499       .  S
C2468      C2469   1.403       .  A
C2468      H2477   1.083       .  S
C2469      C2470   1.409       .  A
C2469      H2478   1.082       .  S
C2470      C2471   1.405       .  A
C2470      C2473   1.498       .  S
C2471      C2472   1.403       .  A
C2471      H2479   1.083       .  S
C2472      H2480   1.080       .  S
C2473      H2481   1.087       .  S
C2473      C2474   1.350       .  D
C2474      H2482   1.084       .  S
C2475      H2483   1.087       .  S
C2475      C2476   1.350       .  D
C2476      H2484   1.083       .  S
C2485      C2486   1.407       .  A
C2485      C2490   1.409       .  A
C2485      C2493   1.501       .  S
C2486      C2487   1.404       .  A
C2486      H2495   1.083       .  S
C2487      C2488   1.410       .  A
C2487      H2496   1.080       .  S
C2488      C2489   1.407       .  A
C2488      C2491   1.503       .  S
C2489      C2490   1.404       .  A
C2489      H2497   1.083       .  S
C2490      H2498   1.080       .  S
C2491      H2499   1.087       .  S
C2491      C2492   1.352       .  D
C2492      H2500   1.082       .  S
C2493      H2501   1.087       .  S
C2493      C2494   1.352       .  D
C2494      H2502   1.083       .  S
C2503      C2504   1.405       .  A
C2503      C2508   1.407       .  A
C2503      C2511   1.493       .  S
C2504      C2505   1.400       .  A
C2504      H2513   1.083       .  S
C2505      C2506   1.407       .  A
C2505      H2514   1.081       .  S
C2506      C2507   1.407       .  A
C2506      C2509   1.496       .  S
C2507      C2508   1.402       .  A
C2507      H2515   1.083       .  S
C2508      H2516   1.081       .  S
C2509      H2517   1.087       .  S
C2509      C2510   1.352       .  D
C2510      H2518   1.084       .  S
C2511      H2519   1.088       .  S
C2511      C2512   1.350       .  D
C2512      H2520   1.084       .  S
C2521      C2522   1.408       .  A
C2521      C2526   1.411       .  A
C2521      C2529   1.503       .  S
C2522      C2523   1.404       .  A
C2522      H2531   1.084       .  S
C2523      C2524   1.408       .  A
C2523      H2532   1.081       .  S
C2524      C2525   1.406       .  A
C2524      C2527   1.498       .  S
C2525      C2526   1.403       .  A
C2525      H2533   1.083       .  S
C2526      H2534   1.079       .  S
C2527      H2535   1.087       .  S
C2527      C2528   1.349       .  D
C2528      H2536   1.083       .  S
C2529      H2537   1.087       .  S
C2529      C2530   1.352       .  D
C2530      H2538   1.083       .  S
C2539      C2540   1.406       .  A
C2539      C2544   1.409       .  A
C2539      C2547   1.502       .  S
C2540      C2541   1.403       .  A
C2540      H2549   1.084       .  S
C2541      C2542   1.410       .  A
C2541      H2550   1.079       .  S
C2542      C2543   1.409       .  A
C2542      C2545   1.506       .  S
C2543      C2544   1.407       .  A
C2543      H2551   1.083       .  S
C2544      H2552   1.081       .  S
C2545      H2553   1.086       .  S
C2545      C2546   1.355       .  D
C2546      H2554   1.081       .  S
C2547      H2555   1.087       .  S
C2547      C2548   1.352       .  D
C2548      H2556   1.085       .  S
C2557      C2558   1.407       .  A
C2557      C2562   1.409       .  A
C2557      C2565   1.500       .  S
C2558      C2559   1.402       .  A
C2558      H2567   1.084       .  S
C2559      C2560   1.408       .  A
C2559      H2568   1.080       .  S
C2560      C2561   1.408       .  A
C2560      C2563   1.501       .  S
C2561      C2562   1.406       .  A
C2561      H2569   1.083       .  S
C2562      H2570   1.080       .  S
C2563      H2571   1.087       .  S
C2563      C2564   1.353       .  D
C2564      H2572   1.081       .  S
C2565      H2573   1.087       .  S
C2565      C2566   1.353       .  D
C2566      H2574   1.084       .  S
C2575      C2576   1.403       .  A
C2575      C2580   1.408       .  A
C2575      C2583   1.491       .  S
C2576      C2577   1.399       .  A
C2576      H2585   1.083       .  S
C2577      C2578   1.408       .  A
C2577      H2586   1.081       .  S
C2578      C2579   1.406       .  A
C2578      C2581   1.494       .  S
C2579      C2580   1.403       .  A
C2579      H2587   1.083       .  S
C2580      H2588   1.082       .  S
C2581      H2589   1.087       .  S
C2581      C2582   1.349       .  D
C2582      H2590   1.082       .  S
C2583      H2591   1.086       .  S
C2583      C2584   1.346       .  D
C2584      H2592   1.084       .  S
C2593      C2594   1.402       .  A
C2593      C2598   1.406       .  A
C2593      C2601   1.479       .  S
C2594      C2595   1.402       .  A
C2594      H2603   1.083       .  S
C2595      C2596   1.409       .  A
C2595      H2604   1.082       .  S
C2596      C2597   1.398       .  A
C2596      C2599   1.475       .  S
C2597      C2598   1.389       .  A
C2597      H2605   1.084       .  S
C2598      H2606   1.083       .  S
C2599      H2607   1.088       .  S
C2599      C2600   1.339       .  D
C2600      H2608   1.086       .  S
C2601      H2609   1.086       .  S
C2601      C2602   1.342       .  D
C2602      H2610   1.087       .  S
C2611      C2612   1.403       .  A
C2611      C2616   1.409       .  A
C2611      C2619   1.480       .  S
C2612      C2613   1.390       .  A
C2612      H2621   1.084       .  S
C2613      C2614   1.402       .  A
C2613      H2622   1.084       .  S
C2614      C2615   1.400       .  A
C2614      C2617   1.471       .  S
C2615      C2616   1.399       .  A
C2615      H2623   1.083       .  S
C2616      H2624   1.080       .  S
C2617      H2625   1.087       .  S
C2617      C2618   1.340       .  D
C2618      H2626   1.088       .  S
C2619      H2627   1.088       .  S
C2619      C2620   1.344       .  D
C2620      H2628   1.083       .  S
C2629      C2630   1.406       .  A
C2629      C2634   1.408       .  A
C2629      C2637   1.495       .  S
C2630      C2631   1.401       .  A
C2630      H2639   1.084       .  S
C2631      C2632   1.407       .  A
C2631      H2640   1.081       .  S
C2632      C2633   1.407       .  A
C2632      C2635   1.496       .  S
C2633      C2634   1.404       .  A
C2633      H2641   1.083       .  S
C2634      H2642   1.081       .  S
C2635      H2643   1.087       .  S
C2635      C2636   1.351       .  D
C2636      H2644   1.084       .  S
C2637      H2645   1.088       .  S
C2637      C2638   1.350       .  D
C2638      H2646   1.083       .  S
C2647      C2648   1.403       .  A
C2647      C2652   1.408       .  A
C2647      C2655   1.493       .  S
C2648      C2649   1.403       .  A
C2648      H2657   1.083       .  S
C2649      C2650   1.411       .  A
C2649      H2658   1.080       .  S
C2650      C2651   1.405       .  A
C2650      C2653   1.498       .  S
C2651      C2652   1.400       .  A
C2651      H2659   1.083       .  S
C2652      H2660   1.082       .  S
C2653      H2661   1.087       .  S
C2653      C2654   1.348       .  D
C2654      H2662   1.083       .  S
C2655      H2663   1.086       .  S
C2655      C2656   1.348       .  D
C2656      H2664   1.085       .  S
C2665      C2666   1.408       .  A
C2665      C2670   1.409       .  A
C2665      C2673   1.503       .  S
C2666      C2667   1.406       .  A
C2666      H2675   1.083       .  S
C2667      C2668   1.409       .  A
C2667      H2676   1.080       .  S
C2668      C2669   1.407       .  A
C2668      C2671   1.504       .  S
C2669      C2670   1.404       .  A
C2669      H2677   1.084       .  S
C2670      H2678   1.080       .  S
C2671      H2679   1.087       .  S
C2671      C2672   1.354       .  D
C2672      H2680   1.083       .  S
C2673      H2681   1.087       .  S
C2673      C2674   1.353       .  D
C2674      H2682   1.083       .  S
C2683      C2684   1.397       .  A
C2683      C2688   1.402       .  A
C2683      C2691   1.458       .  S
C2684      C2685   1.389       .  A
C2684      H2693   1.084       .  S
C2685      C2686   1.404       .  A
C2685      H2694   1.082       .  S
C2686      C2687   1.402       .  A
C2686      C2689   1.466       .  S
C2687      C2688   1.394       .  A
C2687      H2695   1.084       .  S
C2688      H2696   1.083       .  S
C2689      H2697   1.088       .  S
C2689      C2690   1.339       .  D
C2690      H2698   1.086       .  S
C2691      H2699   1.088       .  S
C2691      C2692   1.336       .  D
C2692      H2700   1.087       .  S
C2701      C2702   1.398       .  A
C2701      C2706   1.403       .  A
C2701      C2709   1.456       .  S
C2702      C2703   1.388       .  A
C2702      H2711   1.084       .  S
C2703      C2704   1.403       .  A
C2703      H2712   1.083       .  S
C2704      C2705   1.399       .  A
C2704      C2707   1.457       .  S
C2705      C2706   1.389       .  A
C2705      H2713   1.084       .  S
C2706      H2714   1.083       .  S
C2707      H2715   1.088       .  S
C2707      C2708   1.337       .  D
C2708      H2716   1.087       .  S
C2709      H2717   1.088       .  S
C2709      C2710   1.337       .  D
C2710      H2718   1.086       .  S
C2719      C2720   1.402       .  A
C2719      C2724   1.406       .  A
C2719      C2727   1.468       .  S
C2720      C2721   1.391       .  A
C2720      H2729   1.083       .  S
C2721      C2722   1.403       .  A
C2721      H2730   1.083       .  S
C2722      C2723   1.399       .  A
C2722      C2725   1.466       .  S
C2723      C2724   1.391       .  A
C2723      H2731   1.084       .  S
C2724      H2732   1.082       .  S
C2725      H2733   1.088       .  S
C2725      C2726   1.338       .  D
C2726      H2734   1.086       .  S
C2727      H2735   1.090       .  S
C2727      C2728   1.340       .  D
C2728      H2736   1.085       .  S
C2737      C2738   1.402       .  A
C2737      C2742   1.405       .  A
C2737      C2745   1.472       .  S
C2738      C2739   1.394       .  A
C2738      H2747   1.084       .  S
C2739      C2740   1.403       .  A
C2739      H2748   1.083       .  S
C2740      C2741   1.402       .  A
C2740      C2743   1.468       .  S
C2741      C2742   1.395       .  A
C2741      H2749   1.084       .  S
C2742      H2750   1.083       .  S
C2743      H2751   1.089       .  S
C2743      C2744   1.342       .  D
C2744      H2752   1.086       .  S
C2745      H2753   1.088       .  S
C2745      C2746   1.341       .  D
C2746      H2754   1.087       .  S
C2755      C2756   1.407       .  A
C2755      C2760   1.409       .  A
C2755      C2763   1.498       .  S
C2756      C2757   1.404       .  A
C2756      H2765   1.083       .  S
C2757      C2758   1.408       .  A
C2757      H2766   1.082       .  S
C2758      C2759   1.406       .  A
C2758      C2761   1.496       .  S
C2759      C2760   1.403       .  A
C2759      H2767   1.083       .  S
C2760      H2768   1.081       .  S
C2761      H2769   1.086       .  S
C2761      C2762   1.350       .  D
C2762      H2770   1.085       .  S
C2763      H2771   1.087       .  S
C2763      C2764   1.352       .  D
C2764      H2772   1.084       .  S
C2773      C2774   1.405       .  A
C2773      C2778   1.407       .  A
C2773      C2781   1.494       .  S
C2774      C2775   1.402       .  A
C2774      H2783   1.083       .  S
C2775      C2776   1.410       .  A
C2775      H2784   1.081       .  S
C2776      C2777   1.406       .  A
C2776      C2779   1.499       .  S
C2777      C2778   1.403       .  A
C2777      H2785   1.083       .  S
C2778      H2786   1.082       .  S
C2779      H2787   1.086       .  S
C2779      C2780   1.350       .  D
C2780      H2788   1.084       .  S
C2781      H2789   1.088       .  S
C2781      C2782   1.349       .  D
C2782      H2790   1.085       .  S
C2791      C2792   1.407   1_554  A
C2791      C2796   1.408       .  A
C2791      C2799   1.496       .  S
C2792      C2793   1.402       .  A
C2792      H2801   1.083       .  S
C2793      C2794   1.407   1_556  A
C2793      H2802   1.082       .  S
C2794      C2795   1.406       .  A
C2794      C2797   1.494       .  S
C2795      C2796   1.402       .  A
C2795      H2803   1.083       .  S
C2796      H2804   1.080       .  S
C2797      H2805   1.087       .  S
C2797      C2798   1.351       .  D
C2798      H2806   1.085   1_554  S
C2799      H2807   1.088   1_554  S
C2799      C2800   1.350       .  D
C2800      H2808   1.083       .  S
C2809      C2810   1.402       .  A
C2809      C2814   1.408       .  A
C2809      C2817   1.477       .  S
C2810      C2811   1.393       .  A
C2810      H2819   1.084       .  S
C2811      C2812   1.404       .  A
C2811      H2820   1.083       .  S
C2812      C2813   1.400       .  A
C2812      C2815   1.473       .  S
C2813      C2814   1.395       .  A
C2813      H2821   1.084       .  S
C2814      H2822   1.080       .  S
C2815      H2823   1.089       .  S
C2815      C2816   1.341       .  D
C2816      H2824   1.089       .  S
C2817      H2825   1.090       .  S
C2817      C2818   1.344       .  D
C2818      H2826   1.086       .  S
C2827      C2828   1.401       .  A
C2827      C2832   1.404       .  A
C2827      C2835   1.470       .  S
C2828      C2829   1.393       .  A
C2828      H2837   1.084       .  S
C2829      C2830   1.404       .  A
C2829      H2838   1.083       .  S
C2830      C2831   1.402       .  A
C2830      C2833   1.470       .  S
C2831      C2832   1.394       .  A
C2831      H2839   1.084       .  S
C2832      H2840   1.083       .  S
C2833      H2841   1.089       .  S
C2833      C2834   1.341       .  D
C2834      H2842   1.085       .  S
C2835      H2843   1.088       .  S
C2835      C2836   1.340       .  D
C2836      H2844   1.086       .  S
C2845      C2846   1.398       .  A
C2845      C2850   1.403       .  A
C2845      C2853   1.469       .  S
C2846      C2847   1.395       .  A
C2846      H2855   1.083       .  S
C2847      C2848   1.410       .  A
C2847      H2856   1.080       .  S
C2848      C2849   1.403       .  A
C2848      C2851   1.480       .  S
C2849      C2850   1.391       .  A
C2849      H2857   1.084       .  S
C2850      H2858   1.084       .  S
C2851      H2859   1.090       .  S
C2851      C2852   1.342       .  D
C2852      H2860   1.085       .  S
C2853      H2861   1.086       .  S
C2853      C2854   1.338       .  D
C2854      H2862   1.087       .  S
C2863      C2864   1.404       .  A
C2863      C2868   1.405       .  A
C2863      C2871   1.477       .  S
C2864      C2865   1.396       .  A
C2864      H2873   1.083       .  S
C2865      C2866   1.404       .  A
C2865      H2874   1.082       .  S
C2866      C2867   1.403       .  A
C2866      C2869   1.478       .  S
C2867      C2868   1.397       .  A
C2867      H2875   1.083       .  S
C2868      H2876   1.082       .  S
C2869      H2877   1.088       .  S
C2869      C2870   1.343       .  D
C2870      H2878   1.085       .  S
C2871      H2879   1.089       .  S
C2871      C2872   1.344       .  D
C2872      H2880   1.085       .  S
C2881      C2882   1.408       .  A
C2881      C2886   1.410       .  A
C2881      C2889   1.506       .  S
C2882      C2883   1.405       .  A
C2882      H2891   1.083       .  S
C2883      C2884   1.409       .  A
C2883      H2892   1.080       .  S
C2884      C2885   1.408       .  A
C2884      C2887   1.506       .  S
C2885      C2886   1.406       .  A
C2885      H2893   1.083       .  S
C2886      H2894   1.080       .  S
C2887      H2895   1.087       .  S
C2887      C2888   1.355       .  D
C2888      H2896   1.083       .  S
C2889      H2897   1.087       .  S
C2889      C2890   1.354       .  D
C2890      H2898   1.080       .  S
C2899      C2900   1.406       .  A
C2899      C2904   1.409   1_455  A
C2899      C2907   1.501       .  S
C2900      C2901   1.407       .  A
C2900      H2909   1.083       .  S
C2901      C2902   1.412       .  A
C2901      H2910   1.081       .  S
C2902      C2903   1.406   1_455  A
C2902      C2905   1.504       .  S
C2903      C2904   1.403       .  A
C2903      H2911   1.083       .  S
C2904      H2912   1.082       .  S
C2905      H2913   1.087   1_455  S
C2905      C2906   1.350       .  D
C2906      H2914   1.084       .  S
C2907      H2915   1.086       .  S
C2907      C2908   1.352       .  D
C2908      H2916   1.086   1_455  S
C2917      C2918   1.405       .  A
C2917      C2922   1.408       .  A
C2917      C2925   1.496       .  S
C2918      C2919   1.402       .  A
C2918      H2927   1.084       .  S
C2919      C2920   1.410       .  A
C2919      H2928   1.080       .  S
C2920      C2921   1.406       .  A
C2920      C2923   1.496       .  S
C2921      C2922   1.402       .  A
C2921      H2929   1.083       .  S
C2922      H2930   1.081       .  S
C2923      H2931   1.087       .  S
C2923      C2924   1.348       .  D
C2924      H2932   1.082       .  S
C2925      H2933   1.087       .  S
C2925      C2926   1.349       .  D
C2926      H2934   1.084       .  S
C2935      C2936   1.404       .  A
C2935      C2940   1.411       .  A
C2935      C2943   1.497       .  S
C2936      C2937   1.402       .  A
C2936      H2945   1.084       .  S
C2937      C2938   1.411       .  A
C2937      H2946   1.081       .  S
C2938      C2939   1.403       .  A
C2938      C2941   1.496       .  S
C2939      C2940   1.401       .  A
C2939      H2947   1.083       .  S
C2940      H2948   1.081       .  S
C2941      H2949   1.087       .  S
C2941      C2942   1.346       .  D
C2942      H2950   1.084       .  S
C2943      H2951   1.086       .  S
C2943      C2944   1.348       .  D
C2944      H2952   1.084       .  S
C2953      C2954   1.408       .  A
C2953      C2958   1.409       .  A
C2953      C2961   1.502       .  S
C2954      C2955   1.405       .  A
C2954      H2963   1.083       .  S
C2955      C2956   1.408       .  A
C2955      H2964   1.080       .  S
C2956      C2957   1.406       .  A
C2956      C2959   1.499       .  S
C2957      C2958   1.402       .  A
C2957      H2965   1.083       .  S
C2958      H2966   1.080       .  S
C2959      H2967   1.087       .  S
C2959      C2960   1.353       .  D
C2960      H2968   1.082       .  S
C2961      H2969   1.086       .  S
C2961      C2962   1.353       .  D
C2962      H2970   1.082       .  S
C2971      C2972   1.404       .  A
C2971      C2976   1.407   1_565  A
C2971      C2979   1.489       .  S
C2972      C2973   1.400       .  A
C2972      H2981   1.083       .  S
C2973      C2974   1.407   1_565  A
C2973      H2982   1.081       .  S
C2974      C2975   1.405       .  A
C2974      C2977   1.490       .  S
C2975      C2976   1.399       .  A
C2975      H2983   1.083       .  S
C2976      H2984   1.081       .  S
C2977      H2985   1.088       .  S
C2977      C2978   1.348   1_545  D
C2978      H2986   1.084       .  S
C2979      H2987   1.087       .  S
C2979      C2980   1.348   1_565  D
C2980      H2988   1.084       .  S
C2989      C2990   1.407       .  A
C2989      C2994   1.410   1_455  A
C2989      C2997   1.504       .  S
C2990      C2991   1.407       .  A
C2990      H2999   1.083       .  S
C2991      C2992   1.411       .  A
C2991      H3000   1.081       .  S
C2992      C2993   1.406   1_455  A
C2992      C2995   1.504       .  S
C2993      C2994   1.405       .  A
C2993      H3001   1.083       .  S
C2994      H3002   1.081       .  S
C2995      H3003   1.086   1_455  S
C2995      C2996   1.350       .  D
C2996      H3004   1.084       .  S
C2997      H3005   1.085       .  S
C2997      C2998   1.353   1_455  D
C2998      H3006   1.084       .  S
C3007      C3008   1.408       .  A
C3007      C3012   1.409       .  A
C3007      C3015   1.504       .  S
C3008      C3009   1.404       .  A
C3008      H3017   1.083       .  S
C3009      C3010   1.409       .  A
C3009      H3018   1.080       .  S
C3010      C3011   1.409       .  A
C3010      C3013   1.506       .  S
C3011      C3012   1.409       .  A
C3011      H3019   1.083       .  S
C3012      H3020   1.081       .  S
C3013      H3021   1.087       .  S
C3013      C3014   1.356       .  D
C3014      H3022   1.083   1_655  S
C3015      H3023   1.087       .  S
C3015      C3016   1.355       .  D
C3016      H3024   1.084       .  S
C3025      C3026   1.404       .  A
C3025      C3030   1.407       .  A
C3025      C3033   1.479       .  S
C3026      C3027   1.392       .  A
C3026      H3035   1.084       .  S
C3027      C3028   1.402       .  A
C3027      H3036   1.083       .  S
C3028      C3029   1.402       .  A
C3028      C3031   1.475       .  S
C3029      C3030   1.399       .  A
C3029      H3037   1.083       .  S
C3030      H3038   1.081       .  S
C3031      H3039   1.087       .  S
C3031      C3032   1.341       .  D
C3032      H3040   1.087       .  S
C3033      H3041   1.088       .  S
C3033      C3034   1.346       .  D
C3034      H3042   1.084       .  S
C3043      C3044   1.403       .  A
C3043      C3048   1.410       .  A
C3043      C3051   1.483       .  S
C3044      C3045   1.392       .  A
C3044      H3053   1.084       .  S
C3045      C3046   1.404       .  A
C3045      H3054   1.083       .  S
C3046      C3047   1.401       .  A
C3046      C3049   1.478       .  S
C3047      C3048   1.400       .  A
C3047      H3055   1.083       .  S
C3048      H3056   1.080       .  S
C3049      H3057   1.087       .  S
C3049      C3050   1.341       .  D
C3050      H3058   1.087       .  S
C3051      H3059   1.088       .  S
C3051      C3052   1.345       .  D
C3052      H3060   1.083       .  S
C3061      C3062   1.403       .  A
C3061      C3066   1.403       .  A
C3061      C3069   1.470       .  S
C3062      C3063   1.394       .  A
C3062      H3071   1.084       .  S
C3063      C3064   1.403       .  A
C3063      H3072   1.083       .  S
C3064      C3065   1.402       .  A
C3064      C3067   1.471       .  S
C3065      C3066   1.395       .  A
C3065      H3073   1.083       .  S
C3066      H3074   1.083       .  S
C3067      H3075   1.088       .  S
C3067      C3068   1.342       .  D
C3068      H3076   1.086       .  S
C3069      H3077   1.088       .  S
C3069      C3070   1.345       .  D
C3070      H3078   1.086       .  S
C3079      C3080   1.402       .  A
C3079      C3084   1.408       .  A
C3079      C3087   1.480       .  S
C3080      C3081   1.395       .  A
C3080      H3089   1.084       .  S
C3081      C3082   1.407       .  A
C3081      H3090   1.083       .  S
C3082      C3083   1.400       .  A
C3082      C3085   1.479       .  S
C3083      C3084   1.396       .  A
C3083      H3091   1.083       .  S
C3084      H3092   1.081       .  S
C3085      H3093   1.087       .  S
C3085      C3086   1.339       .  D
C3086      H3094   1.087       .  S
C3087      H3095   1.088       .  S
C3087      C3088   1.345       .  D
C3088      H3096   1.084       .  S
C3097      C3098   1.409       .  A
C3097      C3102   1.409       .  A
C3097      C3105   1.503       .  S
C3098      C3099   1.405       .  A
C3098      H3107   1.083       .  S
C3099      C3100   1.407       .  A
C3099      H3108   1.081       .  S
C3100      C3101   1.407       .  A
C3100      C3103   1.500       .  S
C3101      C3102   1.404       .  A
C3101      H3109   1.083       .  S
C3102      H3110   1.080       .  S
C3103      H3111   1.087       .  S
C3103      C3104   1.354       .  D
C3104      H3112   1.084       .  S
C3105      H3113   1.087       .  S
C3105      C3106   1.353       .  D
C3106      H3114   1.082       .  S
C3115      C3116   1.407       .  A
C3115      C3120   1.409       .  A
C3115      C3123   1.497       .  S
C3116      C3117   1.402       .  A
C3116      H3125   1.084       .  S
C3117      C3118   1.407       .  A
C3117      H3126   1.081       .  S
C3118      C3119   1.405       .  A
C3118      C3121   1.493       .  S
C3119      C3120   1.401       .  A
C3119      H3127   1.084       .  S
C3120      H3128   1.080       .  S
C3121      H3129   1.087       .  S
C3121      C3122   1.351       .  D
C3122      H3130   1.085       .  S
C3123      H3131   1.087       .  S
C3123      C3124   1.351       .  D
C3124      H3132   1.083       .  S
C3133      C3134   1.409       .  A
C3133      C3138   1.408       .  A
C3133      C3141   1.502       .  S
C3134      C3135   1.405       .  A
C3134      H3143   1.083       .  S
C3135      C3136   1.408       .  A
C3135      H3144   1.080       .  S
C3136      C3137   1.409       .  A
C3136      C3139   1.503       .  S
C3137      C3138   1.405       .  A
C3137      H3145   1.083       .  S
C3138      H3146   1.080       .  S
C3139      H3147   1.087       .  S
C3139      C3140   1.356       .  D
C3140      H3148   1.084   1_545  S
C3141      H3149   1.088       .  S
C3141      C3142   1.354       .  D
C3142      H3150   1.083       .  S
C3151      C3152   1.403       .  A
C3151      C3156   1.410       .  A
C3151      C3159   1.483       .  S
C3152      C3153   1.393       .  A
C3152      H3161   1.083       .  S
C3153      C3154   1.404       .  A
C3153      H3162   1.083       .  S
C3154      C3155   1.400       .  A
C3154      C3157   1.476       .  S
C3155      C3156   1.397       .  A
C3155      H3163   1.084       .  S
C3156      H3164   1.079       .  S
C3157      H3165   1.088       .  S
C3157      C3158   1.341       .  D
C3158      H3166   1.087       .  S
C3159      H3167   1.088       .  S
C3159      C3160   1.343       .  D
C3160      H3168   1.082       .  S
C3169      C3170   1.405       .  A
C3169      C3174   1.406       .  A
C3169      C3177   1.479       .  S
C3170      C3171   1.394       .  A
C3170      H3179   1.084       .  S
C3171      C3172   1.399       .  A
C3171      H3180   1.084       .  S
C3172      C3173   1.406       .  A
C3172      C3175   1.473       .  S
C3173      C3174   1.394       .  A
C3173      H3181   1.082       .  S
C3174      H3182   1.080       .  S
C3175      H3183   1.088       .  S
C3175      C3176   1.341       .  D
C3176      H3184   1.086       .  S
C3177      H3185   1.088       .  S
C3177      C3178   1.346       .  D
C3178      H3186   1.084       .  S
C3187      C3188   1.403       .  A
C3187      C3192   1.409       .  A
C3187      C3195   1.480       .  S
C3188      C3189   1.392       .  A
C3188      H3197   1.084       .  S
C3189      C3190   1.402       .  A
C3189      H3198   1.083       .  S
C3190      C3191   1.399       .  A
C3190      C3193   1.468       .  S
C3191      C3192   1.396       .  A
C3191      H3199   1.084       .  S
C3192      H3200   1.080       .  S
C3193      H3201   1.087       .  S
C3193      C3194   1.339       .  D
C3194      H3202   1.088       .  S
C3195      H3203   1.088       .  S
C3195      C3196   1.342       .  D
C3196      H3204   1.083       .  S
C3205      C3206   1.402       .  A
C3205      C3210   1.409       .  A
C3205      C3213   1.479       .  S
C3206      C3207   1.390       .  A
C3206      H3215   1.084       .  S
C3207      C3208   1.402       .  A
C3207      H3216   1.083       .  S
C3208      C3209   1.401       .  A
C3208      C3211   1.472       .  S
C3209      C3210   1.398       .  A
C3209      H3217   1.083       .  S
C3210      H3218   1.080       .  S
C3211      H3219   1.087       .  S
C3211      C3212   1.342       .  D
C3212      H3220   1.087       .  S
C3213      H3221   1.089       .  S
C3213      C3214   1.343       .  D
C3214      H3222   1.084       .  S
C3223      C3224   1.404       .  A
C3223      C3228   1.409       .  A
C3223      C3231   1.493       .  S
C3224      C3225   1.400       .  A
C3224      H3233   1.084       .  S
C3225      C3226   1.408       .  A
C3225      H3234   1.081       .  S
C3226      C3227   1.405       .  A
C3226      C3229   1.494       .  S
C3227      C3228   1.404       .  A
C3227      H3235   1.084       .  S
C3228      H3236   1.081       .  S
C3229      H3237   1.087       .  S
C3229      C3230   1.348       .  D
C3230      H3238   1.085       .  S
C3231      H3239   1.088       .  S
C3231      C3232   1.349       .  D
C3232      H3240   1.085       .  S
C3241      C3242   1.404       .  A
C3241      C3246   1.407   1_655  A
C3241      C3249   1.490       .  S
C3242      C3243   1.400       .  A
C3242      H3251   1.084       .  S
C3243      C3244   1.409   1_655  A
C3243      H3252   1.081       .  S
C3244      C3245   1.406       .  A
C3244      C3247   1.494       .  S
C3245      C3246   1.402       .  A
C3245      H3253   1.083       .  S
C3246      H3254   1.082       .  S
C3247      H3255   1.087       .  S
C3247      C3248   1.349   1_455  D
C3248      H3256   1.085       .  S
C3249      H3257   1.087       .  S
C3249      C3250   1.347   1_655  D
C3250      H3258   1.085       .  S
C3259      C3260   1.406       .  A
C3259      C3264   1.408       .  A
C3259      C3267   1.496       .  S
C3260      C3261   1.401       .  A
C3260      H3269   1.083       .  S
C3261      C3262   1.408       .  A
C3261      H3270   1.080       .  S
C3262      C3263   1.408       .  A
C3262      C3265   1.499       .  S
C3263      C3264   1.404       .  A
C3263      H3271   1.083       .  S
C3264      H3272   1.081       .  S
C3265      H3273   1.087       .  S
C3265      C3266   1.353       .  D
C3266      H3274   1.083       .  S
C3267      H3275   1.088       .  S
C3267      C3268   1.351       .  D
C3268      H3276   1.083       .  S
C3277      C3278   1.407       .  A
C3277      C3282   1.410   1_554  A
C3277      C3285   1.504       .  S
C3278      C3279   1.406       .  A
C3278      H3287   1.084       .  S
C3279      C3280   1.412       .  A
C3279      H3288   1.079       .  S
C3280      C3281   1.406   1_554  A
C3280      C3283   1.505       .  S
C3281      C3282   1.403       .  A
C3281      H3289   1.082       .  S
C3282      H3290   1.080       .  S
C3283      H3291   1.085   1_554  S
C3283      C3284   1.351       .  D
C3284      H3292   1.082       .  S
C3285      H3293   1.086       .  S
C3285      C3286   1.353   1_554  D
C3286      H3294   1.083       .  S
C3295      C3296   1.406   1_565  A
C3295      C3300   1.409       .  A
C3295      C3303   1.498   1_565  S
C3296      C3297   1.401       .  A
C3296      H3305   1.083       .  S
C3297      C3298   1.409   1_545  A
C3297      H3306   1.079       .  S
C3298      C3299   1.406       .  A
C3298      C3301   1.498       .  S
C3299      C3300   1.402       .  A
C3299      H3307   1.084       .  S
C3300      H3308   1.079       .  S
C3301      H3309   1.088       .  S
C3301      C3302   1.350   1_565  D
C3302      H3310   1.083       .  S
C3303      H3311   1.087       .  S
C3303      C3304   1.350   1_545  D
C3304      H3312   1.083       .  S
C3313      C3314   1.406       .  A
C3313      C3318   1.409       .  A
C3313      C3321   1.497       .  S
C3314      C3315   1.402       .  A
C3314      H3323   1.083       .  S
C3315      C3316   1.409       .  A
C3315      H3324   1.081       .  S
C3316      C3317   1.405       .  A
C3316      C3319   1.494       .  S
C3317      C3318   1.401       .  A
C3317      H3325   1.083       .  S
C3318      H3326   1.080       .  S
C3319      H3327   1.087       .  S
C3319      C3320   1.349       .  D
C3320      H3328   1.081       .  S
C3321      H3329   1.087       .  S
C3321      C3322   1.350       .  D
C3322      H3330   1.083       .  S
C3331      C3332   1.406       .  A
C3331      C3336   1.409   1_556  A
C3331      C3339   1.495       .  S
C3332      C3333   1.404       .  A
C3332      H3341   1.083       .  S
C3333      C3334   1.408       .  A
C3333      H3342   1.083       .  S
C3334      C3335   1.402   1_556  A
C3334      C3337   1.490   1_556  S
C3335      C3336   1.399       .  A
C3335      H3343   1.083       .  S
C3336      H3344   1.081       .  S
C3337      H3345   1.087       .  S
C3337      C3338   1.346   1_554  D
C3338      H3346   1.086       .  S
C3339      H3347   1.087       .  S
C3339      C3340   1.349       .  D
C3340      H3348   1.084   1_556  S
C3349      C3350   1.407       .  A
C3349      C3354   1.408       .  A
C3349      C3357   1.498       .  S
C3350      C3351   1.403       .  A
C3350      H3359   1.084       .  S
C3351      C3352   1.408       .  A
C3351      H3360   1.080       .  S
C3352      C3353   1.407       .  A
C3352      C3355   1.497       .  S
C3353      C3354   1.403       .  A
C3353      H3361   1.083       .  S
C3354      H3362   1.081       .  S
C3355      H3363   1.087       .  S
C3355      C3356   1.351       .  D
C3356      H3364   1.083       .  S
C3357      H3365   1.087       .  S
C3357      C3358   1.352       .  D
C3358      H3366   1.084   1_565  S
C3367      C3368   1.407       .  A
C3367      C3372   1.410       .  A
C3367      C3375   1.501       .  S
C3368      C3369   1.403       .  A
C3368      H3377   1.084       .  S
C3369      C3370   1.408       .  A
C3369      H3378   1.080       .  S
C3370      C3371   1.407       .  A
C3370      C3373   1.499       .  S
C3371      C3372   1.403       .  A
C3371      H3379   1.084       .  S
C3372      H3380   1.080       .  S
C3373      H3381   1.087       .  S
C3373      C3374   1.352       .  D
C3374      H3382   1.084       .  S
C3375      H3383   1.088       .  S
C3375      C3376   1.351       .  D
C3376      H3384   1.080       .  S
