geometry optimzed in LAMMPS
_audit_creation_date              2020-11-30 
_audit_creation_method            'lammps2cif' 
_symmetry_space_group_name_H-M    'P1' 
_symmetry_Int_Tables_number       1 
_symmetry_cell_setting            triclinic 
loop_ 
_symmetry_equiv_pos_as_xyz 
  x,y,z 
_cell_length_a                    54.75594598 
_cell_length_b                    54.6054510213126 
_cell_length_c                    54.781885522241446 
_cell_angle_alpha                 90.26367267571669 
_cell_angle_beta                  90.24649349849206 
_cell_angle_gamma                 90.19817494918779 
loop_ 
_atom_site_label 
_atom_site_type_symbol 
_atom_site_fract_x 
_atom_site_fract_y 
_atom_site_fract_z 
_atom_site_charge 
O1          O  0.75398550  0.38030144  0.34488499    -0.54600
C2          C  0.79904793  0.38877565  0.41305414     0.78100
O3          O  0.72820952  0.35546921  0.41437528    -0.55700
C4          C  0.73598837  0.36605083  0.34064920     0.78000
C5          C  0.79144219  0.31667948  0.37934834     0.80400
Cd6        Cd  0.76317336  0.36113437  0.38553855     1.37500
O7          O  0.79899069  0.38956515  0.38984310    -0.54600
O8          O  0.79271445  0.33470056  0.36494603    -0.53400
C9          C  0.72319321  0.37826424  0.41422470     0.80400
O10         O  0.77600552  0.31839933  0.39654185    -0.55700
O11         O  0.78252040  0.37602570  0.42289937    -0.54200
O12         O  0.73180170  0.34960535  0.35631791    -0.54200
O13         O  0.73607973  0.39188237  0.40073520    -0.53400
O14         O  0.65455321  0.38192540  0.47172479    -0.54600
C15         C  0.60297561  0.41253811  0.52453238     0.78100
O16         O  0.67628184  0.43539429  0.52781888    -0.55700
C17         C  0.67244904  0.39154182  0.46054254     0.78000
C18         C  0.62964527  0.45797594  0.46402580     0.80400
Cd19       Cd  0.64621941  0.42005532  0.49600526     1.37500
O20         O  0.60757919  0.39834840  0.50667467    -0.54600
O21         O  0.61862100  0.43782282  0.46685090    -0.53400
C22         C  0.68191990  0.41368554  0.53399853     0.80400
O23         O  0.64861171  0.46170510  0.47704999    -0.55700
O24         O  0.61805698  0.42969895  0.52867201    -0.54200
O25         O  0.67696268  0.41382547  0.46525992    -0.54200
O26         O  0.67092814  0.39650087  0.52290182    -0.53400
O27         O  0.75984347  0.37781206  0.64338747    -0.54600
C28         C  0.72484199  0.37485609  0.57373084     0.78100
O29         O  0.78441579  0.32999256  0.57770238    -0.55700
C30         C  0.77456715  0.36439096  0.65522098     0.78000
C31         C  0.72346949  0.31095385  0.62106824     0.80400
Cd32       Cd  0.75639445  0.34969728  0.60769298     1.37500
O33         O  0.73375265  0.38698501  0.59150068    -0.54600
O34         O  0.72051567  0.33313266  0.62712452    -0.53400
C35         C  0.79944531  0.34766607  0.57754643     0.80400
O36         O  0.74282397  0.30590864  0.60946569    -0.55700
O37         O  0.73079376  0.35263944  0.57225987    -0.54200
O38         O  0.78038168  0.34421248  0.64530803    -0.54200
O39         O  0.79530211  0.36508928  0.59223567    -0.53400
O40         O  0.84755001  0.37199880  0.52147142    -0.54600
C41         C  0.91397884  0.39681364  0.47797430     0.78100
O42         O  0.83077200  0.41957132  0.49042602    -0.55700
C43         C  0.85260415  0.37547139  0.54375919     0.78000
C44         C  0.88688426  0.45012229  0.53509557     0.80400
Cd45       Cd  0.87185744  0.40787246  0.50676490     1.37500
O46         O  0.90579355  0.38056779  0.49238890    -0.54600
O47         O  0.90102166  0.43285359  0.52936667    -0.53400
C48         C  0.83420558  0.41026210  0.46946914     0.80400
O49         O  0.86550067  0.44937689  0.52601113    -0.55700
O50         O  0.90323536  0.41725594  0.47792071    -0.54200
O51         O  0.86884287  0.39125591  0.54834934    -0.54200
O52         O  0.85532309  0.40209900  0.46532002    -0.53400
O53         O  0.36757871  0.36540681  0.74364250    -0.54600
C54         C  0.36762914  0.43526714  0.78778611     0.78100
O55         O  0.33318444  0.43304152  0.71740791    -0.55700
C56         C  0.35284481  0.35885366  0.72676244     0.78000
C57         C  0.30548667  0.39168805  0.78244218     0.80400
Cd58       Cd  0.34536584  0.40461487  0.75132244     1.37500
O59         O  0.38019872  0.41781340  0.77889846    -0.54600
O60         O  0.32604283  0.38106707  0.78303329    -0.53400
C61         C  0.35515664  0.43597324  0.71050097     0.80400
O62         O  0.30239097  0.40767938  0.76589645    -0.55700
O63         O  0.34607550  0.43764729  0.77989590    -0.54200
O64         O  0.33496970  0.37285373  0.72243349    -0.54200
O65         O  0.37135321  0.42441296  0.72226108    -0.53400
O66         O  0.37801486  0.54721359  0.84645332    -0.54600
C67         C  0.40294269  0.49229330  0.90433682     0.78100
O68         O  0.42672040  0.48674669  0.83262320    -0.55700
C69         C  0.39130740  0.55592097  0.82951490     0.78000
C70         C  0.44896415  0.55179657  0.87921606     0.80400
Cd71       Cd  0.41186664  0.51968718  0.86092725     1.37500
O72         O  0.38805840  0.50913433  0.89830442    -0.54600
O73         O  0.42751335  0.55125559  0.88776837    -0.53400
C74         C  0.40511294  0.47937494  0.82792254     0.80400
O75         O  0.45413767  0.53621510  0.86267623    -0.55700
O76         O  0.42127796  0.48901292  0.89070999    -0.54200
O77         O  0.41285276  0.54786371  0.82783945    -0.54200
O78         O  0.38787431  0.49072616  0.83834214    -0.53400
O79         O  0.39567287  0.52339858  0.60242582    -0.54600
C80         C  0.39582807  0.47402797  0.66812654     0.78100
O81         O  0.46046500  0.49124568  0.63758212    -0.55700
C82         C  0.41079898  0.54039039  0.59731472     0.78000
C83         C  0.41291999  0.55014049  0.67287744     0.80400
Cd84       Cd  0.41928469  0.51056366  0.63908476     1.37500
O85         O  0.38359545  0.48432420  0.65124232    -0.54600
O86         O  0.39573398  0.53855245  0.66239706    -0.53400
C87         C  0.45472783  0.47813732  0.61911208     0.80400
O88         O  0.43457305  0.54305372  0.66825659    -0.55700
O89         O  0.41793526  0.48038771  0.67058734    -0.54200
O90         O  0.42950749  0.54251596  0.61085366    -0.54200
O91         O  0.43380385  0.48137282  0.60978574    -0.53400
O92         O  0.37569782  0.66556743  0.75320887    -0.54600
C93         C  0.37447702  0.59491817  0.71096797     0.78100
O94         O  0.33448705  0.60011886  0.77612012    -0.55700
C95         C  0.36027463  0.67362136  0.76859435     0.78000
C96         C  0.31372178  0.64415331  0.71026639     0.80400
Cd97       Cd  0.35085302  0.62824474  0.74381444     1.37500
O98         O  0.38655287  0.61346284  0.71847328    -0.54600
O99         O  0.33523870  0.65270356  0.71065739    -0.53400
C100        C  0.35551398  0.59708525  0.78558971     0.80400
O101        O  0.30839847  0.62833249  0.72639935    -0.55700
O102        O  0.35279438  0.59279023  0.71843091    -0.54200
O103        O  0.34095015  0.66117411  0.77149257    -0.54200
O104        O  0.37294609  0.60905274  0.77625438    -0.53400
O105        O  0.51636047  0.61256644  0.38607661    -0.54600
C106        C  0.46869156  0.67803409  0.38297389     0.78100
O107        O  0.48735943  0.65199540  0.45113884    -0.55700
C108        C  0.53421602  0.60811167  0.40032883     0.78000
C109        C  0.54405521  0.68415341  0.40137301     0.80400
Cd110      Cd  0.50480508  0.65024427  0.40899650     1.37500
O111        O  0.47772751  0.65900842  0.37309759    -0.54600
O112        O  0.53278355  0.67299657  0.38441760    -0.53400
C113        C  0.47390441  0.63324550  0.44767388     0.80400
O114        O  0.53722938  0.67973144  0.42310391    -0.55700
O115        O  0.47612411  0.68327391  0.40429483    -0.54200
O116        O  0.53738558  0.62244412  0.41829261    -0.54200
O117        O  0.47602521  0.62224414  0.42742252    -0.53400
O118        O  0.65762980  0.76236308  0.36861621    -0.54600
C119        C  0.58569072  0.72625396  0.36389728     0.78100
O120        O  0.59368926  0.79805449  0.33439939    -0.55700
C121        C  0.66761469  0.77883266  0.35568964     0.78000
C122        C  0.62917264  0.73143642  0.30090467     0.80400
Cd123      Cd  0.61945656  0.76079291  0.34349041     1.37500
O124        O  0.60494044  0.73175305  0.37581236    -0.54600
O125        O  0.63824633  0.72731655  0.32180546    -0.53400
C126        C  0.59163644  0.80307873  0.35701146     0.80400
O127        O  0.61616473  0.75059435  0.29885526    -0.55700
O128        O  0.58277897  0.73642120  0.34342599    -0.54200
O129        O  0.65572978  0.78590614  0.33710095    -0.54200
O130        O  0.60267559  0.78930941  0.37182807    -0.53400
O131        O  0.50014360  0.91606097  0.37775181    -0.54600
C132        C  0.54301371  0.85179806  0.36922314     0.78100
O133        O  0.52674129  0.87699684  0.44321977    -0.55700
C134        C  0.48478460  0.92344598  0.39345786     0.78000
C135        C  0.47056525  0.84320099  0.40422582     0.80400
Cd136      Cd  0.51003082  0.87826008  0.40087677     1.37500
O137        O  0.52784904  0.86644292  0.35964253    -0.54600
O138        O  0.47064491  0.86022188  0.38868729    -0.53400
C139        C  0.54327560  0.89277358  0.43918384     0.80400
O140        O  0.48826649  0.84277363  0.41915600    -0.55700
O141        O  0.54259815  0.85037574  0.39218765    -0.54200
O142        O  0.48201344  0.91042383  0.41229210    -0.54200
O143        O  0.54323442  0.90253573  0.41825427    -0.53400
O144        O  0.35223333  0.76007804  0.38201548    -0.54600
C145        C  0.41533277  0.80678538  0.38378691     0.78100
O146        O  0.41880146  0.73312487  0.35036197    -0.55700
C147        C  0.34485300  0.74294445  0.36806688     0.78000
C148        C  0.38462474  0.79545134  0.31267104     0.80400
Cd149      Cd  0.39007170  0.76826273  0.35789149     1.37500
O150        O  0.39218405  0.80692261  0.38252359    -0.54600
O151        O  0.37124223  0.79837960  0.33120918    -0.53400
C152        C  0.42164122  0.72920843  0.37310421     0.80400
O153        O  0.40033845  0.77842206  0.31402691    -0.55700
O154        O  0.42605204  0.78867348  0.37429316    -0.54200
O155        O  0.35756296  0.73880634  0.34924198    -0.54200
O156        O  0.40977401  0.74269508  0.38761829    -0.53400
O157        O  0.10955457  0.72343883  0.12218025    -0.54600
C158        C  0.17210433  0.77407636  0.14681753     0.78100
O159        O  0.10193596  0.78654945  0.16994943    -0.55700
C160        C  0.09134426  0.71730925  0.13526435     0.78000
C161        C  0.14239765  0.71649625  0.19143104     0.80400
Cd162      Cd  0.12637399  0.75061969  0.15549308     1.37500
O163        O  0.16405797  0.75851262  0.13129491    -0.54600
O164        O  0.15133442  0.71778042  0.17019969    -0.53400
C165        C  0.09818441  0.79406447  0.14827419     0.80400
O166        O  0.12626441  0.73224186  0.19717743    -0.55700
O167        O  0.15945975  0.77761846  0.16582160    -0.54200
O168        O  0.08998970  0.72668210  0.15636244    -0.54200
O169        O  0.10749983  0.78157460  0.13114292    -0.53400
O170        O  0.01483585  0.60541676  0.11986670    -0.54600
C171        C  0.97228224  0.67882816  0.11278827     0.78100
O172        O  0.04031627  0.66835783  0.07911152    -0.55700
C173        C  0.03028552  0.59762309  0.10431362     0.78000
C174        C  0.97048187  0.62532056  0.06112398     0.80400
Cd175      Cd  0.00581604  0.64298901  0.09523389     1.37500
O176        O  0.97864518  0.66171593  0.12726666    -0.54600
O177        O  0.97150598  0.61824601  0.08309245    -0.53400
C178        C  0.04758290  0.67424495  0.10047755     0.80400
O179        O  0.98707538  0.64000469  0.05391872    -0.55700
O180        O  0.98162986  0.67881961  0.09171376    -0.54200
O181        O  0.03363867  0.61054906  0.08546699    -0.54200
O182        O  0.03590646  0.66516201  0.11825059    -0.53400
O183        O  0.86341920  0.76560434  0.11938641    -0.54600
C184        C  0.93249740  0.80119179  0.11814528     0.78100
O185        O  0.90442589  0.78564300  0.18794528    -0.55700
C186        C  0.85340913  0.74951113  0.13267584     0.78000
C187        C  0.92998648  0.72558600  0.14375092     0.80400
Cd188      Cd  0.90055448  0.76939598  0.14547014     1.37500
O189        O  0.91322922  0.79279708  0.10822062    -0.54600
O190        O  0.92077862  0.73579150  0.12520147    -0.53400
C191        C  0.88923521  0.80283095  0.18473968     0.80400
O192        O  0.92494954  0.73512416  0.16428870    -0.55700
O193        O  0.93645741  0.79483622  0.13997235    -0.54200
O194        O  0.86491235  0.74334412  0.15179056    -0.54200
O195        O  0.87872441  0.80357072  0.16413660    -0.53400
O196        O  0.01956418  0.91381478  0.11454656    -0.54600
C197        C  0.06067096  0.84030757  0.11140400     0.78100
O198        O  0.99000983  0.84761439  0.08458148    -0.55700
C199        C  0.00335099  0.92088178  0.09939365     0.78000
C200        C  0.05761921  0.88567604  0.05163312     0.80400
Cd201      Cd  0.02656831  0.87446394  0.09201182     1.37500
O202        O  0.05647778  0.85991674  0.12340150    -0.54600
O203        O  0.06042111  0.89501658  0.07273535    -0.53400
C204        C  0.98633198  0.84509162  0.10741303     0.80400
O205        O  0.03923712  0.87162689  0.04849271    -0.55700
O206        O  0.04960394  0.83748180  0.09125281    -0.54200
O207        O  0.99912856  0.90708700  0.08117504    -0.54200
O208        O  0.00055856  0.85643189  0.12182409    -0.53400
O209        O  0.40351164  0.30338477  0.62290037    -0.54600
C210        C  0.34715650  0.24481657  0.64782564     0.78100
O211        O  0.42056658  0.23690936  0.65941339    -0.55700
C212        C  0.42228243  0.30957992  0.63540560     0.78000
C213        C  0.37912304  0.30216358  0.69485080     0.80400
Cd214      Cd  0.39147819  0.27198061  0.65404047     1.37500
O215        O  0.35194851  0.26243891  0.63339513    -0.54600
O216        O  0.36887156  0.30393924  0.67409345    -0.53400
C217        C  0.42316993  0.23444747  0.63639912     0.80400
O218        O  0.39448532  0.28488946  0.69755988    -0.55700
O219        O  0.36215593  0.24096905  0.66506563    -0.54200
O220        O  0.42569679  0.29877403  0.65551968    -0.54200
O221        O  0.41116535  0.24877397  0.62282413    -0.53400
O222        O  0.51094023  0.11413641  0.61287855    -0.54600
C223        C  0.46768390  0.18205874  0.62183233     0.78100
O224        O  0.53103696  0.18312166  0.57662910    -0.55700
C225        C  0.52513650  0.10751458  0.59574763     0.78000
C226        C  0.46486665  0.13857463  0.55510309     0.80400
Cd227      Cd  0.49967629  0.15300362  0.59188117     1.37500
O228        O  0.47605737  0.16204325  0.63009135    -0.54600
O229        O  0.46600060  0.12912036  0.57611129    -0.53400
C230        C  0.54228915  0.18374183  0.59699887     0.80400
O231        O  0.48048489  0.15513931  0.55021277    -0.55700
O232        O  0.47413126  0.18786741  0.60045385    -0.54200
O233        O  0.52644698  0.12132722  0.57730443    -0.54200
O234        O  0.53401912  0.17004791  0.61363105    -0.53400
O235        O  0.60586874  0.23103625  0.62060221    -0.54600
C236        C  0.66459270  0.28267359  0.64609201     0.78100
O237        O  0.59307555  0.29116763  0.67082789    -0.55700
C238        C  0.59014737  0.21998189  0.63361368     0.78000
C239        C  0.63470286  0.22782239  0.69679922     0.80400
Cd240      Cd  0.62001126  0.25721521  0.65619744     1.37500
O241        O  0.65903411  0.26384961  0.63342511    -0.54600
O242        O  0.64534958  0.22728400  0.67630013    -0.53400
C243        C  0.58690715  0.29715299  0.64927484     0.80400
O244        O  0.61783028  0.24353903  0.69942854    -0.55700
O245        O  0.65003496  0.28871329  0.66290437    -0.54200
O246        O  0.58920672  0.22588732  0.65589931    -0.54200
O247        O  0.59600650  0.28474705  0.63201179    -0.53400
O248        O  0.51214704  0.41065688  0.62478194    -0.54600
C249        C  0.54443443  0.33986668  0.61365606     0.78100
O250        O  0.47373759  0.35647023  0.57893602    -0.55700
C251        C  0.49720935  0.42341843  0.61249379     0.78000
C252        C  0.54430822  0.38941103  0.55502360     0.80400
Cd253      Cd  0.51248277  0.37650853  0.59458103     1.37500
O254        O  0.53950586  0.35853222  0.62664721    -0.54600
O255        O  0.54743719  0.39684410  0.57674319    -0.53400
C256        C  0.46733367  0.34983530  0.60018835     0.80400
O257        O  0.52514995  0.37685720  0.55079499    -0.55700
O258        O  0.53456501  0.33857399  0.59279701    -0.54200
O259        O  0.49031666  0.41467284  0.59211647    -0.54200
O260        O  0.48140933  0.35596493  0.61754865    -0.53400
O261        O  0.34672231  0.09095346  0.27471043    -0.54600
C262        C  0.35586405  0.16608743  0.21816235     0.78100
O263        O  0.33310940  0.09302790  0.20992302    -0.55700
C264        C  0.36841748  0.09387799  0.28201726     0.78000
C265        C  0.30395174  0.13299272  0.27271075     0.80400
Cd266      Cd  0.34590319  0.12148494  0.24375756     1.37500
O267        O  0.36923060  0.16022605  0.23625294    -0.54600
O268        O  0.32361276  0.14531341  0.27363685    -0.53400
C269        C  0.35500740  0.08722773  0.20504384     0.80400
O270        O  0.30270595  0.11615763  0.25666279    -0.55700
O271        O  0.33805448  0.15209461  0.21317971    -0.54200
O272        O  0.38095855  0.11051835  0.27172119    -0.54200
O273        O  0.37154596  0.09746303  0.21769747    -0.53400
O274        O  0.38880135  0.00392244  0.09893651    -0.54600
C275        C  0.39363457  0.04269378  0.16722955     0.78100
O276        O  0.43303359  0.97347578  0.15899191    -0.55700
C277        C  0.40193128  0.98759328  0.08896194     0.78000
C278        C  0.45446325  0.04119802  0.11797630     0.80400
Cd279      Cd  0.41638504  0.00873322  0.13448564     1.37500
O280        O  0.38184465  0.03545997  0.14849636    -0.54600
O281        O  0.43361348  0.03965442  0.10810430    -0.53400
C282        C  0.41187071  0.96492147  0.16335833     0.80400
O283        O  0.45898028  0.02631899  0.13519589    -0.55700
O284        O  0.41484421  0.03418029  0.17020544    -0.54200
O285        O  0.42146949  0.98170414  0.09996092    -0.54200
O286        O  0.39404112  0.97641032  0.15419979    -0.53400
O287        O  0.37771491  0.85321868  0.25533220    -0.54600
C288        C  0.37684254  0.91949952  0.20294233     0.78100
O289        O  0.31361902  0.89767020  0.22988936    -0.55700
C290        C  0.36315954  0.84981130  0.27310756     0.78000
C291        C  0.37282511  0.92930691  0.27805656     0.80400
Cd292      Cd  0.35709044  0.89291815  0.24318131     1.37500
O293        O  0.38937350  0.90189798  0.21167592    -0.54600
O294        O  0.38705273  0.91762115  0.26413067    -0.53400
C295        C  0.31514770  0.88107384  0.21356045     0.80400
O296        O  0.35014069  0.92427967  0.27638707    -0.55700
O297        O  0.35628224  0.92361415  0.21249985    -0.54200
O298        O  0.34638233  0.86546914  0.27590737    -0.54200
O299        O  0.33493450  0.86903885  0.21287096    -0.53400
O300        O  0.39325687  0.02358183  0.39582843    -0.54600
C301        C  0.38508286  0.97684980  0.32897732     0.78100
O302        O  0.42781351  0.04380778  0.32637483    -0.55700
C303        C  0.40852484  0.04056088  0.40065421     0.78000
C304        C  0.45314413  0.97982019  0.36699032     0.80400
Cd305      Cd  0.41355922  0.01228406  0.35632542     1.37500
O306        O  0.37671176  0.98524831  0.34895157    -0.54600
O307        O  0.43318127  0.97962196  0.37859790    -0.53400
C308        C  0.40636662  0.05200945  0.32305479     0.80400
O309        O  0.45566755  0.99626279  0.35087242    -0.55700
O310        O  0.40572414  0.98492026  0.32246771    -0.54200
O311        O  0.42597998  0.04328318  0.38584493    -0.54200
O312        O  0.38945808  0.04200860  0.33520447    -0.53400
O313        O  0.35510380  0.14947757  0.45178143    -0.54600
C314        C  0.41620141  0.13447386  0.50457737     0.78100
O315        O  0.34466061  0.11079543  0.51995070    -0.55700
C316        C  0.33864307  0.13454323  0.44457565     0.78000
C317        C  0.38430117  0.07665723  0.45580391     0.80400
Cd318      Cd  0.37066169  0.11962692  0.48289527     1.37500
O319        O  0.40734405  0.14667610  0.48693141    -0.54600
O320        O  0.39372334  0.09757019  0.45209206    -0.53400
C321        C  0.33865760  0.13319412  0.52228022     0.80400
O322        O  0.36964245  0.07491503  0.47369170    -0.55700
O323        O  0.40452483  0.11545937  0.51090762    -0.54200
O324        O  0.33783810  0.11386988  0.45477306    -0.54200
O325        O  0.34733755  0.14798436  0.50689117    -0.53400
O326        O  0.25729864  0.14181157  0.64598448    -0.54600
C327        C  0.29659815  0.14243663  0.57786773     0.78100
O328        O  0.22730387  0.18451816  0.58383871    -0.55700
C329        C  0.23933138  0.15383622  0.65428284     0.78000
C330        C  0.29201427  0.20987531  0.62161564     0.80400
Cd331      Cd  0.26217808  0.16796203  0.60900448     1.37500
O332        O  0.28885605  0.13218860  0.59710772    -0.54600
O333        O  0.29347751  0.18961825  0.63268712    -0.53400
C334        C  0.21990453  0.16327969  0.57776605     0.80400
O335        O  0.27558064  0.21148705  0.60532787    -0.55700
O336        O  0.28883004  0.16383631  0.57388777    -0.54200
O337        O  0.23294636  0.17252799  0.64226424    -0.54200
O338        O  0.23174018  0.14543677  0.58640765    -0.53400
O339        O  0.15707951  0.14119564  0.52958450    -0.54600
C340        C  0.09497542  0.11708811  0.47921946     0.78100
O341        O  0.16793512  0.10152350  0.46153536    -0.55700
C342        C  0.17631728  0.12899590  0.53436744     0.78000
C343        C  0.13453106  0.06797569  0.53047804     0.80400
Cd344      Cd  0.14278021  0.10931812  0.49940049     1.37500
O345        O  0.10369088  0.13246958  0.49450192    -0.54600
O346        O  0.12477390  0.08873675  0.53400247    -0.53400
C347        C  0.17118956  0.12438169  0.45818115     0.80400
O348        O  0.14725734  0.06550815  0.51121938    -0.55700
O349        O  0.10785643  0.09844183  0.47450940    -0.54200
O350        O  0.17927256  0.10903018  0.52300520    -0.54200
O351        O  0.16103433  0.13881513  0.47307855    -0.53400
O352        O  0.25606799  0.14245676  0.33594487    -0.54600
C353        C  0.21433893  0.13621773  0.40416385     0.78100
O354        O  0.27949142  0.18451611  0.40043160    -0.55700
C355        C  0.27048771  0.15896323  0.32820099     0.78000
C356        C  0.21229588  0.20296783  0.36432406     0.80400
Cd357      Cd  0.24681272  0.16531394  0.37451809     1.37500
O358        O  0.22249867  0.12722803  0.38438674    -0.54600
O359        O  0.21278948  0.18282587  0.35278977    -0.53400
C360        C  0.28985613  0.16419855  0.40459119     0.80400
O361        O  0.22891137  0.20656631  0.38016514    -0.55700
O362        O  0.22141351  0.15765801  0.40951955    -0.54200
O363        O  0.27280847  0.17799041  0.34125077    -0.54200
O364        O  0.28026913  0.14539683  0.39485550    -0.53400
O365        O  0.75242223  0.64656115  0.15039402    -0.54600
C366        C  0.79619868  0.64700538  0.07708341     0.78100
O367        O  0.73149267  0.68593459  0.08680394    -0.55700
C368        C  0.73793385  0.66353011  0.15715445     0.78000
C369        C  0.80104168  0.70297779  0.12984725     0.80400
Cd370      Cd  0.76485085  0.66920655  0.11289775     1.37500
O371        O  0.79122989  0.63484740  0.09628604    -0.54600
O372        O  0.79948159  0.68114550  0.13742435    -0.53400
C373        C  0.72174833  0.66490733  0.08377122     0.80400
O374        O  0.78484431  0.71012213  0.11472858    -0.55700
O375        O  0.78659575  0.66795546  0.07515651    -0.54200
O376        O  0.73714467  0.68264607  0.14415008    -0.54200
O377        O  0.73193673  0.64699189  0.09435258    -0.53400
O378        O  0.90813599  0.63529174  0.99827314    -0.54600
C379        C  0.84183820  0.62786685  0.95615050     0.78100
O380        O  0.87110190  0.56482338  0.97523593    -0.55700
C381        C  0.91826577  0.62217269  0.01449781     0.78000
C382        C  0.84028284  0.61211318  0.03447997     0.80400
Cd383      Cd  0.87263311  0.60721239  0.99304850     1.37500
O384        O  0.85750413  0.64162763  0.96663474    -0.54600
O385        O  0.84673209  0.62950905  0.02074766    -0.53400
C386        C  0.88954766  0.56861534  0.96170922     0.80400
O387        O  0.84894405  0.59113417  0.02934158    -0.55700
O388        O  0.84129205  0.60568191  0.96251276    -0.54200
O389        O  0.90729071  0.60259202  0.02036850    -0.54200
O390        O  0.90048019  0.58889446  0.96428504    -0.53400
O391        O  0.76291687  0.64842762  0.84829896    -0.54600
C392        C  0.71989259  0.64104648  0.91488487     0.78100
O393        O  0.78701454  0.68550389  0.91540136    -0.55700
C394        C  0.77779887  0.66479408  0.84114472     0.78000
C395        C  0.72172094  0.70963690  0.87636913     0.80400
Cd396      Cd  0.75399998  0.67011876  0.88725839     1.37500
O397        O  0.72777329  0.63276746  0.89469753    -0.54600
O398        O  0.72243640  0.68988289  0.86420830    -0.53400
C399        C  0.79636507  0.66437493  0.91767993     0.80400
O400        O  0.73691770  0.71189748  0.89381460    -0.55700
O401        O  0.72784070  0.66185746  0.92140268    -0.54200
O402        O  0.78071152  0.68331384  0.85482940    -0.54200
O403        O  0.78638914  0.64718005  0.90566074    -0.53400
O404        O  0.60595174  0.63904694  0.00211809    -0.54600
C405        C  0.67450006  0.63105584  0.04462319     0.78100
O406        O  0.64646513  0.56900279  0.01574495    -0.55700
C407        C  0.59797720  0.62705650  0.98377586     0.78000
C408        C  0.67522181  0.62869163  0.96750180     0.80400
Cd409      Cd  0.64341771  0.61353863  0.00622992     1.37500
O410        O  0.65688856  0.64449583  0.03761032    -0.54600
O411        O  0.66538765  0.64295819  0.98274108    -0.53400
C412        C  0.63098613  0.57008238  0.03297566     0.80400
O413        O  0.67036207  0.60595981  0.96948426    -0.55700
O414        O  0.67680890  0.61047284  0.03429523    -0.54200
O415        O  0.61040627  0.60866845  0.97708771    -0.54200
O416        O  0.62026289  0.59041080  0.03608303    -0.53400
O417        O  0.11664817  0.11810355  0.71475316    -0.54600
C418        C  0.14824209  0.17623503  0.76530145     0.78100
O419        O  0.17398436  0.10495679  0.76954442    -0.55700
C420        C  0.12711911  0.09877127  0.70709199     0.78000
C421        C  0.18875544  0.14832792  0.70244313     0.80400
Cd422      Cd  0.15421367  0.13182067  0.73823060     1.37500
O423        O  0.13135594  0.16940472  0.75068882    -0.54600
O424        O  0.16742809  0.15699548  0.70431541    -0.53400
C425        C  0.15392377  0.10068708  0.78038236     0.80400
O426        O  0.19487719  0.13201866  0.71778121    -0.55700
O427        O  0.16718669  0.16308055  0.76635426    -0.54200
O428        O  0.14901992  0.09569102  0.71385225    -0.54200
O429        O  0.13509212  0.11107528  0.77185416    -0.53400
O430        O  0.13018615  0.01639573  0.59231731    -0.54600
C431        C  0.13448771  0.96769418  0.65985135     0.78100
O432        O  0.09766691  0.03708315  0.66063935    -0.55700
C433        C  0.11496836  0.03356008  0.58838507     0.78000
C434        C  0.07271803  0.97104625  0.61268938     0.80400
Cd435      Cd  0.10965294  0.00372101  0.63092834     1.37500
O436        O  0.14498894  0.97631441  0.64102480    -0.54600
O437        O  0.09381449  0.97295813  0.60351157    -0.53400
C438        C  0.11996852  0.04268469  0.66465469     0.80400
O439        O  0.06772129  0.98517222  0.63057158    -0.55700
O440        O  0.11315733  0.97547285  0.66428961    -0.54200
O441        O  0.09787924  0.03618450  0.60368270    -0.54200
O442        O  0.13598299  0.03048938  0.65334647    -0.53400
O443        O  0.12712084  0.86064090  0.75532303    -0.54600
C444        C  0.14266456  0.93304342  0.79052825     0.78100
O445        O  0.20012297  0.89531903  0.76783540    -0.55700
C446        C  0.13909595  0.84912501  0.73908852     0.78000
C447        C  0.14248261  0.92364518  0.71392196     0.80400
Cd448      Cd  0.15585279  0.89595765  0.75626261     1.37500
O449        O  0.12843550  0.91476706  0.78746992    -0.54600
O450        O  0.12749097  0.91537170  0.72934814    -0.53400
C451        C  0.19640915  0.88062556  0.78544788     0.80400
O452        O  0.16496740  0.91861554  0.71727270    -0.55700
O453        O  0.16198651  0.93355346  0.77799667    -0.54200
O454        O  0.15870847  0.85907067  0.73170649    -0.54200
O455        O  0.17489985  0.87255458  0.78810459    -0.53400
O456        O  0.14266350  0.02009667  0.89698790    -0.54600
C457        C  0.12513805  0.05852737  0.82841656     0.78100
O458        O  0.09355117  0.98535656  0.84378649    -0.55700
C459        C  0.13070636  0.00437618  0.90916004     0.78000
C460        C  0.06883383  0.04978246  0.88033439     0.80400
Cd461      Cd  0.11059887  0.02280546  0.86413591     1.37500
O462        O  0.14031825  0.05261654  0.84499030    -0.54600
O463        O  0.09025692  0.05421254  0.88808092    -0.53400
C464        C  0.11391670  0.97916996  0.83475943     0.80400
O465        O  0.06627341  0.03163900  0.86599494    -0.55700
O466        O  0.10452932  0.04813880  0.82889493    -0.54200
O467        O  0.10984905  0.99854110  0.90090213    -0.54200
O468        O  0.13197921  0.99286770  0.83968967    -0.53400
O469        O  0.36462066  0.87320782  0.03205900    -0.54600
C470        C  0.42565875  0.89790131  0.97895971     0.78100
O471        O  0.35513379  0.91802296  0.96905510    -0.55700
C472        C  0.34712123  0.88711469  0.03861414     0.78000
C473        C  0.39899137  0.94043947  0.03757981     0.80400
Cd474      Cd  0.38118314  0.90513496  0.00412679     1.37500
O475        O  0.41827614  0.88134681  0.99357369    -0.54600
O476        O  0.40709807  0.91874242  0.03658160    -0.53400
C477        C  0.35050848  0.89579241  0.96342440     0.80400
O478        O  0.38296745  0.94668116  0.02184543    -0.55700
O479        O  0.41267571  0.91694940  0.97680788    -0.54200
O480        O  0.34620837  0.90830941  0.02939857    -0.54200
O481        O  0.36027032  0.87925341  0.97626795    -0.53400
O482        O  0.26693755  0.87030600  0.14900919    -0.54600
C483        C  0.22537097  0.87108534  0.07773722     0.78100
O484        O  0.29458816  0.83123775  0.08468856    -0.55700
C485        C  0.28285308  0.85509770  0.15647195     0.78000
C486        C  0.22793891  0.80628875  0.11980131     0.80400
Cd487      Cd  0.25964547  0.84691427  0.10961123     1.37500
O488        O  0.23393023  0.88305251  0.09586907    -0.54600
O489        O  0.22688436  0.82661772  0.13101981    -0.53400
C490        C  0.30183299  0.85262229  0.07919716     0.80400
O491        O  0.24486528  0.80390995  0.10419438    -0.55700
O492        O  0.23234818  0.84919852  0.07538178    -0.54200
O493        O  0.28682702  0.83676105  0.14290150    -0.54200
O494        O  0.28973694  0.87031051  0.08790348    -0.53400
O495        O  0.29943702  0.90350616  0.88995252    -0.54600
C496        C  0.24807749  0.88120436  0.83261574     0.78100
O497        O  0.29264652  0.82632979  0.87684745    -0.55700
C498        C  0.30670563  0.89226795  0.90889447     0.78000
C499        C  0.23233739  0.86947362  0.90933592     0.80400
Cd500      Cd  0.27334433  0.86785259  0.87659751     1.37500
O501        O  0.26324223  0.89597553  0.84240071    -0.54600
O502        O  0.24346696  0.88806257  0.90124013    -0.53400
C503        C  0.30776951  0.83151433  0.86009016     0.80400
O504        O  0.23971267  0.84874524  0.90172669    -0.55700
O505        O  0.24544065  0.86059143  0.84285856    -0.54200
O506        O  0.29845184  0.87085515  0.91201573    -0.54200
O507        O  0.30594022  0.85250321  0.85059787    -0.53400
O508        O  0.12010592  0.89628146  0.00212178    -0.54600
C509        C  0.19016780  0.90124996  0.95566002     0.78100
O510        O  0.15580909  0.96252823  0.97465008    -0.55700
C511        C  0.11388779  0.91146139  0.01872543     0.78000
C512        C  0.18866402  0.91106801  0.03305138     0.80400
Cd513      Cd  0.15759498  0.92006962  0.99175175     1.37500
O514        O  0.17228483  0.88774975  0.96212101    -0.54600
O515        O  0.17808416  0.89442724  0.02066518    -0.53400
C516        C  0.13881630  0.95674504  0.95970126     0.80400
O517        O  0.18515161  0.93308009  0.02625144    -0.55700
O518        O  0.19231092  0.92189245  0.96603210    -0.54200
O519        O  0.12731489  0.93020023  0.02176544    -0.54200
O520        O  0.13055638  0.93508082  0.96072054    -0.53400
O521        O  0.36745389  0.76651370  0.87189974    -0.54600
C522        C  0.42661213  0.72402856  0.87700651     0.78100
O523        O  0.40697503  0.74337841  0.80075551    -0.55700
C524        C  0.35744161  0.78196199  0.85784862     0.78000
C525        C  0.43944982  0.79531220  0.84065236     0.80400
Cd526      Cd  0.40225212  0.75774233  0.84403914     1.37500
O527        O  0.42274392  0.74591776  0.88352060    -0.54600
O528        O  0.41794852  0.80010950  0.84735809    -0.53400
C529        C  0.38935496  0.72830186  0.80192593     0.80400
O530        O  0.44319823  0.77379819  0.83292764    -0.55700
O531        O  0.41688087  0.71743535  0.85709102    -0.54200
O532        O  0.36769745  0.78546262  0.83747278    -0.54200
O533        O  0.37721610  0.72838858  0.82151913    -0.53400
O534        O  0.51355525  0.61157787  0.86742354    -0.54600
C535        C  0.55021864  0.68403780  0.87218375     0.78100
O536        O  0.48358503  0.67449986  0.90777662    -0.55700
C537        C  0.49810607  0.60155743  0.88155205     0.78000
C538        C  0.55122303  0.63181949  0.93165842     0.80400
Cd539      Cd  0.51870604  0.64811190  0.89382955     1.37500
O540        O  0.54524651  0.66473303  0.86002849    -0.54600
O541        O  0.55220330  0.62449526  0.90974717    -0.53400
C542        C  0.47345541  0.67362609  0.88680809     0.80400
O543        O  0.53424188  0.64675098  0.93704259    -0.55700
O544        O  0.54073283  0.68598711  0.89307517    -0.54200
O545        O  0.49341286  0.61263080  0.90140708    -0.54200
O546        O  0.48399062  0.66106349  0.87057179    -0.53400
O547        O  0.51739439  0.91151372  0.87798552    -0.54600
C548        C  0.47528394  0.84908808  0.86602567     0.78100
O549        O  0.54308553  0.84378618  0.91295775    -0.55700
C550        C  0.53311167  0.91890918  0.89348155     0.78000
C551        C  0.47962616  0.87406604  0.94200138     0.80400
Cd552      Cd  0.50984879  0.87194525  0.89918212     1.37500
O553        O  0.47420255  0.87187749  0.87031353    -0.54600
O554        O  0.48320525  0.89198993  0.92794774    -0.53400
C555        C  0.55265881  0.84301847  0.89188323     0.80400
O556        O  0.49166845  0.85481621  0.93750660    -0.55700
O557        O  0.49281459  0.83772556  0.87574456    -0.54200
O558        O  0.53714587  0.90512716  0.91154343    -0.54200
O559        O  0.54287954  0.85609999  0.87554777    -0.53400
O560        O  0.61324165  0.79524490  0.86609674    -0.54600
C561        C  0.66861643  0.74184128  0.84460978     0.78100
O562        O  0.59909916  0.73356051  0.81508515    -0.55700
C563        C  0.59663809  0.80529861  0.85334250     0.78000
C564        C  0.64441546  0.79903549  0.79427333     0.80400
Cd565      Cd  0.62562994  0.76784565  0.83155077     1.37500
O566        O  0.66020260  0.75794748  0.85914057    -0.54600
O567        O  0.65448074  0.79675298  0.81496278    -0.53400
C568        C  0.59209845  0.72753438  0.83634871     0.80400
O569        O  0.62613781  0.78528946  0.78964285    -0.55700
O570        O  0.65751937  0.73869349  0.82451743    -0.54200
O571        O  0.59427339  0.79818005  0.83148473    -0.54200
O572        O  0.60039005  0.74021278  0.85391399    -0.53400
O573        O  0.72727200  0.12657925  0.09467566    -0.54600
C574        C  0.78268162  0.14891341  0.15155319     0.78100
O575        O  0.78706431  0.17722476  0.08097280    -0.55700
C576        C  0.71670574  0.14039747  0.07926540     0.78000
C577        C  0.72359306  0.19790788  0.12877310     0.80400
Cd578      Cd  0.75462267  0.16083270  0.10904728     1.37500
O579        O  0.76591822  0.13429987  0.14439727    -0.54600
O580        O  0.72513308  0.17660131  0.13767347    -0.53400
C581        C  0.79326784  0.15578287  0.07429958     0.80400
O582        O  0.73785559  0.20309722  0.11123119    -0.55700
O583        O  0.78564693  0.16836548  0.13941061    -0.54200
O584        O  0.72358972  0.16247568  0.07845356    -0.54200
O585        O  0.78148843  0.13814062  0.08351135    -0.53400
O586        O  0.90885398  0.12275508  0.99508502    -0.54600
C587        C  0.83620483  0.11934942  0.03253240     0.78100
O588        O  0.84530081  0.08211483  0.96548455    -0.55700
C589        C  0.91717012  0.10835975  0.97878529     0.78000
C590        C  0.88566540  0.05944718  0.03316225     0.80400
Cd591      Cd  0.87112214  0.09758519  0.00043225     1.37500
O592        O  0.85436721  0.13224818  0.02582712    -0.54600
O593        O  0.89370738  0.08120265  0.03464220    -0.53400
C594        C  0.84222155  0.10361729  0.95718339     0.80400
O595        O  0.87128717  0.05460744  0.01547326    -0.55700
O596        O  0.83500874  0.09764557  0.02453295    -0.54200
O597        O  0.90462533  0.08949317  0.97367861    -0.54200
O598        O  0.85294084  0.12085858  0.96849453    -0.53400
O599        O  0.79464677  0.12950694  0.89536896    -0.54600
C600        C  0.74027812  0.15697780  0.84015247     0.78100
O601        O  0.72933182  0.16875357  0.91451560    -0.55700
C602        C  0.80295331  0.14133862  0.91371834     0.78000
C603        C  0.79344068  0.20595433  0.87686777     0.80400
Cd604      Cd  0.76474518  0.16293327  0.88582960     1.37500
O605        O  0.75843604  0.14334645  0.84511561    -0.54600
O606        O  0.79558112  0.18625766  0.86470736    -0.53400
C607        C  0.72684196  0.14574448  0.91738853     0.80400
O608        O  0.77634374  0.20670099  0.89253845    -0.55700
O609        O  0.73450107  0.17303979  0.85580389    -0.54200
O610        O  0.79382944  0.16212236  0.91807718    -0.54200
O611        O  0.74122617  0.13200728  0.90569844    -0.53400
O612        O  0.60604177  0.11987976  0.00387740    -0.54600
C613        C  0.67370973  0.13091501  0.96061837     0.78100
O614        O  0.67492298  0.08404440  0.02327913    -0.55700
C615        C  0.60057706  0.10317777  0.01904149     0.78000
C616        C  0.63638228  0.06213748  0.95650188     0.80400
Cd617      Cd  0.64539426  0.09987321  0.99212127     1.37500
O618        O  0.65298883  0.13836011  0.96791320    -0.54600
O619        O  0.62553504  0.08260227  0.95645984    -0.53400
C620        C  0.67713760  0.10484075  0.03357660     0.80400
O621        O  0.65106193  0.05825559  0.97406019    -0.55700
O622        O  0.68042993  0.11010423  0.96809267    -0.54200
O623        O  0.61476638  0.08498850  0.02017587    -0.54200
O624        O  0.66452430  0.12212511  0.02483874    -0.53400
O625        O  0.55467327  0.15473954  0.13246327    -0.54600
C626        C  0.50230464  0.09266027  0.11616603     0.78100
O627        O  0.48590190  0.16457576  0.09271555    -0.55700
C628        C  0.56095279  0.17207828  0.11832256     0.78000
C629        C  0.54792692  0.12725201  0.05791914     0.80400
Cd630      Cd  0.52290328  0.13925993  0.10223928     1.37500
O631        O  0.51962265  0.10206293  0.12863325    -0.54600
O632        O  0.55260497  0.11698070  0.07812570    -0.53400
C633        C  0.48354525  0.17125684  0.11484447     0.80400
O634        O  0.53017778  0.14218676  0.05760324    -0.55700
O635        O  0.49540440  0.10449708  0.09754145    -0.54200
O636        O  0.55029577  0.17312516  0.09787857    -0.54200
O637        O  0.49864905  0.16276291  0.13006552    -0.53400
O638        O  0.36206568  0.25675282  0.11854741    -0.54600
C639        C  0.42911656  0.21480847  0.12118234     0.78100
O640        O  0.42471161  0.28562207  0.15945436    -0.55700
C641        C  0.35322331  0.27309059  0.13247532     0.78000
C642        C  0.38550257  0.22050697  0.18560837     0.80400
Cd643      Cd  0.39883479  0.25047857  0.14470257     1.37500
O644        O  0.40924387  0.22116308  0.11101711    -0.54600
O645        O  0.37561670  0.21866608  0.16474247    -0.53400
C646        C  0.43018895  0.29244145  0.13801911     0.80400
O647        O  0.40137591  0.23732406  0.18830707    -0.55700
O648        O  0.43417804  0.22487286  0.14143931    -0.54200
O649        O  0.36511767  0.27798848  0.15178685    -0.54200
O650        O  0.42108091  0.28005786  0.12061530    -0.53400
O651        O  0.66139442  0.26080393  0.12044778    -0.54600
C652        C  0.59107297  0.29779873  0.12964939     0.78100
O653        O  0.60707778  0.23029087  0.16981313    -0.55700
C654        C  0.67303186  0.24585054  0.13384896     0.78000
C655        C  0.64510303  0.30167855  0.18637697     0.80400
Cd656      Cd  0.62795031  0.26669123  0.15054488     1.37500
O657        O  0.60972597  0.29236256  0.11700051    -0.54600
O658        O  0.65320837  0.30042859  0.16483163    -0.53400
C659        C  0.60068972  0.22138630  0.14924105     0.80400
O660        O  0.62956375  0.28550268  0.19253368    -0.55700
O661        O  0.59001354  0.28893898  0.15088453    -0.54200
O662        O  0.66420139  0.24159395  0.15477329    -0.54200
O663        O  0.60713165  0.23330431  0.13057098    -0.53400
O664        O  0.47843800  0.35493318  0.11656551    -0.54600
C665        C  0.53253007  0.41526472  0.09520021     0.78100
O666        O  0.54200729  0.34459945  0.07069109    -0.55700
C667        C  0.47093105  0.33750683  0.10286011     0.78000
C668        C  0.47560183  0.38593811  0.04492623     0.80400
Cd669      Cd  0.50685281  0.37058703  0.08408602     1.37500
O670        O  0.51505085  0.40853770  0.10894874    -0.54600
O671        O  0.47471395  0.39511051  0.06622072    -0.53400
C672        C  0.54734074  0.33831835  0.09241246     0.80400
O673        O  0.49241981  0.37043005  0.04089635    -0.55700
O674        O  0.53701692  0.40191395  0.07682034    -0.54200
O675        O  0.47972773  0.33629906  0.08159543    -0.54200
O676        O  0.53398017  0.34683889  0.10923893    -0.53400
O677        O  0.63130749  0.41600303  0.28627422    -0.54600
C678        C  0.64749165  0.35361891  0.23389342     0.78100
O679        O  0.66652214  0.42695378  0.21696952    -0.55700
C680        C  0.64493168  0.43442533  0.29099047     0.78000
C681        C  0.70213015  0.38873617  0.28338251     0.80400
Cd682      Cd  0.66012598  0.40070314  0.25432143     1.37500
O683        O  0.63509027  0.36257010  0.25135783    -0.54600
O684        O  0.68096680  0.38010596  0.28724340    -0.53400
C685        C  0.64382403  0.43190526  0.21549932     0.80400
O686        O  0.70467823  0.40200469  0.26447774    -0.55700
O687        O  0.66556732  0.36619986  0.22663064    -0.54200
O688        O  0.66447922  0.43650055  0.27895203    -0.54200
O689        O  0.62994881  0.42207902  0.23106629    -0.53400
O690        O  0.63939169  0.51873311  0.40015995    -0.54600
C691        C  0.63475563  0.55482813  0.33214134     0.78100
O692        O  0.59327848  0.48546884  0.34311911    -0.55700
C693        C  0.62592429  0.50414541  0.41203406     0.78000
C694        C  0.56915656  0.55296213  0.37511087     0.80400
Cd695      Cd  0.61038643  0.52220782  0.36508281     1.37500
O696        O  0.64486758  0.54916096  0.35220158    -0.54600
O697        O  0.59024083  0.55677064  0.38395076    -0.53400
C698        C  0.61408120  0.47856585  0.33573139     0.80400
O699        O  0.56651830  0.53398535  0.36192063    -0.55700
O700        O  0.61386584  0.54571031  0.32801232    -0.54200
O701        O  0.60531804  0.49907831  0.40267503    -0.54200
O702        O  0.63219134  0.49128980  0.34262784    -0.53400
O703        O  0.63853576  0.48326436  0.14182894    -0.54600
C704        C  0.60605797  0.53389735  0.08741984     0.78100
O705        O  0.55881491  0.49066461  0.13722119    -0.55700
C706        C  0.63057363  0.47600640  0.16233738     0.78000
C707        C  0.60474272  0.55135038  0.16341131     0.80400
Cd708      Cd  0.60084128  0.50824533  0.13300958     1.37500
O709        O  0.62236598  0.51870934  0.09395827    -0.54600
O710        O  0.62245507  0.54202727  0.15189883    -0.53400
C711        C  0.56265397  0.47316372  0.12239156     0.80400
O712        O  0.58421973  0.54063171  0.16110522    -0.55700
O713        O  0.58757375  0.53579285  0.10105425    -0.54200
O714        O  0.60987718  0.48401828  0.16867722    -0.54200
O715        O  0.58339647  0.47275692  0.11223687    -0.53400
O716        O  0.63779660  0.66996985  0.24812779    -0.54600
C717        C  0.63845828  0.60035272  0.20055889     0.78100
O718        O  0.70176802  0.62396719  0.22862443    -0.55700
C719        C  0.65155539  0.67422152  0.26650166     0.78000
C720        C  0.64351946  0.59587386  0.27632739     0.80400
Cd721      Cd  0.65816210  0.62949465  0.23941333     1.37500
O722        O  0.62507582  0.61712604  0.20963241    -0.54600
O723        O  0.62869701  0.60648505  0.26217044    -0.53400
C724        C  0.70108070  0.63972424  0.21159371     0.80400
O725        O  0.66612920  0.60059171  0.27362433    -0.55700
O726        O  0.65984529  0.59829744  0.20899961    -0.54200
O727        O  0.66790123  0.65856491  0.27111117    -0.54200
O728        O  0.68135769  0.65164816  0.20908134    -0.53400
O729        O  0.10041343  0.78883820  0.62413464    -0.54600
C730        C  0.15671216  0.73443661  0.65278997     0.78100
O731        O  0.11500837  0.78120456  0.70060403    -0.55700
C732        C  0.08307529  0.79812544  0.63651421     0.78000
C733        C  0.08017241  0.72184409  0.65118751     0.80400
Cd734      Cd  0.11310083  0.76192587  0.65914972     1.37500
O735        O  0.15087777  0.75065545  0.63717390    -0.54600
O736        O  0.09272305  0.73189966  0.63460252    -0.53400
C737        C  0.13241863  0.79542823  0.69441789     0.80400
O738        O  0.08307801  0.73001187  0.67284099    -0.55700
O739        O  0.14264694  0.73159357  0.67089087    -0.54200
O740        O  0.08029221  0.79047886  0.65808107    -0.54200
O741        O  0.14090827  0.79289850  0.67310340    -0.53400
O742        O  0.97446216  0.86032036  0.62282565    -0.54600
C743        C  0.02381396  0.92097035  0.60591696     0.78100
O744        O  0.03846386  0.84779540  0.57643123    -0.55700
C745        C  0.96639913  0.84283458  0.60964657     0.78000
C746        C  0.97494659  0.88608203  0.54791281     0.80400
Cd747      Cd  0.00354248  0.87452176  0.59016184     1.37500
O748        O  0.00756654  0.91027917  0.61846202    -0.54600
O749        O  0.97089503  0.89502961  0.56889392    -0.53400
C750        C  0.04406100  0.84199295  0.59816317     0.80400
O751        O  0.99388296  0.87289923  0.54567978    -0.55700
O752        O  0.02952086  0.91082822  0.58588516    -0.54200
O753        O  0.97530830  0.84073256  0.58854247    -0.54200
O754        O  0.03165151  0.85185897  0.61492108    -0.53400
O755        O  0.85245683  0.76599385  0.62912720    -0.54600
C756        C  0.92190992  0.72417365  0.63282709     0.78100
O757        O  0.91754105  0.79534551  0.66769124    -0.55700
C758        C  0.84515982  0.78365793  0.64241843     0.78000
C759        C  0.87866560  0.73090457  0.69557366     0.80400
Cd760      Cd  0.89078264  0.76048034  0.65396685     1.37500
O761        O  0.90421137  0.73226300  0.62011192    -0.54600
O762        O  0.86841721  0.72832005  0.67491657    -0.53400
C763        C  0.92328146  0.80122290  0.64604216     0.80400
O764        O  0.89357852  0.74865799  0.69780239    -0.55700
O765        O  0.92432510  0.73266046  0.65417624    -0.54200
O766        O  0.85839959  0.78942603  0.66053891    -0.54200
O767        O  0.91374490  0.78862308  0.62902470    -0.53400
O768        O  0.03031319  0.66241753  0.62413497    -0.54600
C769        C  0.97535680  0.60586598  0.59759758     0.78100
O770        O  0.97146386  0.67798278  0.57399719    -0.55700
C771        C  0.03897863  0.68027483  0.61199429     0.78000
C772        C  0.03746707  0.63172818  0.55326358     0.80400
Cd773      Cd  0.00367942  0.64914633  0.58902357     1.37500
O774        O  0.99268092  0.61153432  0.61218305    -0.54600
O775        O  0.03524709  0.62228390  0.57420291    -0.53400
C776        C  0.96424458  0.68262368  0.59560285     0.80400
O777        O  0.02260144  0.64870576  0.54764700    -0.55700
O778        O  0.97199572  0.61971441  0.57939748    -0.54200
O779        O  0.03124698  0.68298325  0.59040257    -0.54200
O780        O  0.97517660  0.67172544  0.61283004    -0.53400
O781        O  0.26096405  0.38039454  0.16032561    -0.54600
C782        C  0.30316701  0.38967437  0.09092927     0.78100
O783        O  0.28886450  0.31920880  0.11626066    -0.55700
C784        C  0.24481814  0.36435918  0.16529619     0.78000
C785        C  0.23027202  0.37079000  0.08913342     0.80400
Cd786      Cd  0.27086179  0.36095811  0.12040283     1.37500
O787        O  0.29597412  0.39826789  0.11129671    -0.54600
O788        O  0.24192023  0.38688661  0.10110958    -0.53400
C789        C  0.30469823  0.32328628  0.13289792     0.80400
O790        O  0.23677091  0.34857056  0.09185335    -0.55700
O791        O  0.29602121  0.36824008  0.08541838    -0.54200
O792        O  0.24164141  0.34718690  0.14999529    -0.54200
O793        O  0.30410123  0.34395082  0.14342300    -0.53400
O794        O  0.10536654  0.37771771  0.00756284    -0.54600
C795        C  0.17534684  0.37662121  0.04578551     0.78100
O796        O  0.17050065  0.41242059  0.97505333    -0.55700
C797        C  0.09622954  0.39205827  0.99181691     0.78000
C798        C  0.13592479  0.44430256  0.04120213     0.80400
Cd799      Cd  0.14428919  0.40148083  0.01147868     1.37500
O800        O  0.15499218  0.36694799  0.03995314    -0.54600
O801        O  0.12515510  0.42399666  0.04432872    -0.53400
C802        C  0.17338208  0.39001514  0.96932819     0.80400
O803        O  0.15061173  0.44551306  0.02334607    -0.55700
O804        O  0.18032541  0.39698332  0.03604499    -0.54200
O805        O  0.10891470  0.41063957  0.98619677    -0.54200
O806        O  0.16236860  0.37441667  0.98221819    -0.53400
O807        O  0.22659579  0.39311707  0.89694133    -0.54600
C808        C  0.27585415  0.36469710  0.83965332     0.78100
O809        O  0.28721133  0.34200418  0.91259911    -0.55700
C810        C  0.21827463  0.38283836  0.91596687     0.78000
C811        C  0.22124750  0.31587963  0.87508410     0.80400
Cd812      Cd  0.25271813  0.35667425  0.88599254     1.37500
O813        O  0.25966254  0.37958142  0.84707616    -0.54600
O814        O  0.21978813  0.33629538  0.86427985    -0.53400
C815        C  0.29441461  0.36362087  0.91750479     0.80400
O816        O  0.23831371  0.31360666  0.89066848    -0.55700
O817        O  0.28032099  0.34649326  0.85312340    -0.54200
O818        O  0.22572934  0.36135769  0.92016604    -0.54200
O819        O  0.28269657  0.38087225  0.90757494    -0.53400
O820        O  0.41101766  0.39941042  0.99923742    -0.54600
C821        C  0.33714722  0.39997698  0.96014457     0.78100
O822        O  0.34553984  0.42677051  0.03210348    -0.55700
C823        C  0.41798932  0.41364923  0.01641232     0.78000
C824        C  0.37999961  0.46069483  0.96250125     0.80400
Cd825      Cd  0.37092428  0.42042106  0.99440943     1.37500
O826        O  0.35690058  0.38842323  0.96446765    -0.54600
O827        O  0.38973475  0.43978358  0.96001943    -0.53400
C828        C  0.34297340  0.40373181  0.03499080     0.80400
O829        O  0.36668524  0.46395107  0.98125958    -0.55700
O830        O  0.33379146  0.41987137  0.97157537    -0.54200
O831        O  0.40380928  0.43103117  0.02214608    -0.54200
O832        O  0.35340855  0.38983262  0.01975564    -0.53400
O833        O  0.00213101  0.42078589  0.88436780    -0.54600
C834        C  0.04839947  0.35474371  0.87684623     0.78100
O835        O  0.03018166  0.37760737  0.94688306    -0.55700
C836        C  0.98405162  0.42433834  0.89846009     0.78000
C837        C  0.97630608  0.34719489  0.89182509     0.80400
Cd838      Cd  0.01346975  0.38181802  0.90449341     1.37500
O839        O  0.03976664  0.37439838  0.86794320    -0.54600
O840        O  0.98873829  0.35923026  0.87663358    -0.53400
C841        C  0.04525795  0.39517464  0.94412092     0.80400
O842        O  0.98044895  0.35120436  0.91441088    -0.55700
O843        O  0.04188244  0.34931245  0.89832187    -0.54200
O844        O  0.98066221  0.40895753  0.91533968    -0.54200
O845        O  0.04435955  0.40664325  0.92411268    -0.53400
O846        O  0.15904150  0.26608960  0.86401854    -0.54600
C847        C  0.08929038  0.22235685  0.86640991     0.78100
O848        O  0.09092622  0.29647752  0.83941920    -0.55700
C849        C  0.16445454  0.28363411  0.84976441     0.78000
C850        C  0.12552515  0.23145103  0.80187805     0.80400
Cd851      Cd  0.11812666  0.26001793  0.84486542     1.37500
O852        O  0.10800774  0.23008230  0.87804435    -0.54600
O853        O  0.13796710  0.22884760  0.82128896    -0.53400
C854        C  0.08876172  0.29931292  0.86239985     0.80400
O855        O  0.11013467  0.24887103  0.80150512    -0.55700
O856        O  0.08492857  0.23181783  0.84584724    -0.54200
O857        O  0.14910873  0.28890906  0.83327819    -0.54200
O858        O  0.09993982  0.28439306  0.87596905    -0.53400
O859        O  0.85486703  0.25800361  0.87080347    -0.54600
C860        C  0.92345266  0.30203620  0.88107868     0.78100
O861        O  0.92503342  0.23111405  0.84687131    -0.55700
C862        C  0.85055653  0.24067951  0.85574895     0.78000
C863        C  0.89036849  0.29774128  0.81138932     0.80400
Cd864      Cd  0.89629479  0.26654018  0.85344169     1.37500
O865        O  0.90217115  0.29614511  0.88832984    -0.54600
O866        O  0.87724971  0.29919199  0.83035003    -0.53400
C867        C  0.92651085  0.22695871  0.86969639     0.80400
O868        O  0.90623929  0.28078321  0.81106222    -0.55700
O869        O  0.93098275  0.29166497  0.86182311    -0.54200
O870        O  0.86664235  0.23654199  0.83972807    -0.54200
O871        O  0.91392938  0.24038038  0.88363324    -0.53400
O872        O  0.98151376  0.15587549  0.87412538    -0.54600
C873        C  0.03400490  0.10400371  0.90689692     0.78100
O874        O  0.03908257  0.17857659  0.92586179    -0.55700
C875        C  0.97250692  0.17555180  0.88265621     0.78000
C876        C  0.97398212  0.13737712  0.95041862     0.80400
Cd877      Cd  0.00705141  0.14864453  0.91174841     1.37500
O878        O  0.01737753  0.10915293  0.89149001    -0.54600
O879        O  0.97387933  0.12655362  0.92991434    -0.53400
C880        C  0.04725872  0.18152366  0.90438174     0.80400
O881        O  0.99058521  0.15334151  0.95395080    -0.55700
O882        O  0.03696412  0.11869974  0.92458432    -0.54200
O883        O  0.97944481  0.18185297  0.90384972    -0.54200
O884        O  0.03697004  0.16926336  0.88756047    -0.53400
O885        O  0.88446020  0.41006261  0.71517744    -0.54600
C886        C  0.86394875  0.35077252  0.77323292     0.78100
O887        O  0.83447710  0.41956958  0.77522550    -0.55700
C888        C  0.86958783  0.42626952  0.70746353     0.78000
C889        C  0.81852541  0.37003238  0.70957103     0.80400
Cd890      Cd  0.85238896  0.39214620  0.74317361     1.37500
O891        O  0.87933123  0.35757430  0.75717033    -0.54600
O892        O  0.84042935  0.36295232  0.71186727    -0.53400
C893        C  0.85544948  0.42690823  0.78235748     0.80400
O894        O  0.81122629  0.38657700  0.72427374    -0.55700
O895        O  0.84406321  0.36252010  0.77434594    -0.54200
O896        O  0.84821773  0.42586623  0.71610219    -0.54200
O897        O  0.87379223  0.41792431  0.77151559    -0.53400
O898        O  0.87424350  0.51028244  0.59959044    -0.54600
C899        C  0.87706103  0.55106041  0.66452775     0.78100
O900        O  0.92120883  0.48169272  0.65882570    -0.55700
C901        C  0.88821511  0.49607253  0.58784602     0.78000
C902        C  0.94305528  0.54880999  0.62287274     0.80400
Cd903      Cd  0.90295549  0.51645234  0.63445229     1.37500
O904        O  0.86719933  0.54286087  0.64515483    -0.54600
O905        O  0.92207326  0.55058142  0.61327733    -0.53400
C906        C  0.90060449  0.47346444  0.66549350     0.80400
O907        O  0.94630064  0.53096601  0.63726789    -0.55700
O908        O  0.89818783  0.54317385  0.66950143    -0.54200
O909        O  0.90901181  0.49210417  0.59723448    -0.54200
O910        O  0.88211285  0.48479806  0.65758199    -0.53400
O911        O  0.87761360  0.50985332  0.89538846    -0.54600
C912        C  0.88793613  0.47282557  0.82500816     0.78100
O913        O  0.92332349  0.54373937  0.83811487    -0.55700
C914        C  0.89107472  0.52455946  0.90748193     0.78000
C915        C  0.94842511  0.47878300  0.87331886     0.80400
Cd916      Cd  0.90667560  0.50733057  0.86034560     1.37500
O917        O  0.87450073  0.47869046  0.84296105    -0.54600
O918        O  0.92718533  0.47431602  0.88129125    -0.53400
C919        C  0.90225801  0.55175386  0.83280059     0.80400
O920        O  0.95085943  0.49753464  0.85994375    -0.55700
O921        O  0.90864278  0.48295050  0.82390081    -0.54200
O922        O  0.91134528  0.53027018  0.89798999    -0.54200
O923        O  0.88427478  0.53953854  0.84066034    -0.53400
O924        O  0.88218000  0.61588330  0.78593953    -0.54600
C925        C  0.85581686  0.67349394  0.72874266     0.78100
O926        O  0.84417442  0.60014687  0.71969626    -0.55700
C927        C  0.86890417  0.59781682  0.79249674     0.78000
C928        C  0.80993879  0.63964470  0.78465484     0.80400
Cd929      Cd  0.85085783  0.62854229  0.75486342     1.37500
O930        O  0.87045618  0.66901083  0.74633717    -0.54600
O931        O  0.82997174  0.65138708  0.78590624    -0.53400
C932        C  0.86700812  0.59659814  0.71702686     0.80400
O933        O  0.80791591  0.62348678  0.76791639    -0.55700
O934        O  0.83922442  0.65781585  0.72438937    -0.54200
O935        O  0.84854003  0.59499345  0.78187710    -0.54200
O936        O  0.88134186  0.60795925  0.73134212    -0.53400
O937        O  0.10010041  0.27723545  0.37325827    -0.54600
C938        C  0.15404557  0.23181839  0.33923267     0.78100
O939        O  0.07377040  0.23337988  0.31674174    -0.55700
C940        C  0.08396129  0.29108536  0.36411192     0.78000
C941        C  0.12585221  0.29077105  0.29559063     0.80400
Cd942      Cd  0.10950499  0.25763746  0.33272838     1.37500
O943        O  0.14719522  0.24746159  0.35501650    -0.54600
O944        O  0.13594047  0.28910242  0.31635162    -0.53400
C945        C  0.07433934  0.21832850  0.33432159     0.80400
O946        O  0.10843782  0.27596275  0.29108975    -0.55700
O947        O  0.14045371  0.22859186  0.32071291    -0.54200
O948        O  0.08085483  0.28961594  0.34129485    -0.54200
O949        O  0.09163938  0.22080484  0.34947542    -0.53400
O950        O  0.99626312  0.11538494  0.37879334    -0.54600
C951        C  0.04033391  0.16864686  0.36765910     0.78100
O952        O  0.98966918  0.19238335  0.41338744    -0.55700
C953        C  0.98227103  0.10589834  0.39458604     0.78000
C954        C  0.03920799  0.14466281  0.44709067     0.80400
Cd955      Cd  0.00729741  0.15128373  0.40500419     1.37500
O956        O  0.01868851  0.17648163  0.36883902    -0.54600
O957        O  0.03325361  0.12759766  0.43260816    -0.53400
C958        C  0.96796327  0.18669610  0.40758408     0.80400
O959        O  0.02859621  0.16495261  0.44379723    -0.55700
O960        O  0.04569391  0.15123473  0.38172763    -0.54200
O961        O  0.98039877  0.11710204  0.41476119    -0.54200
O962        O  0.96401301  0.16434062  0.40289176    -0.53400
O963        O  0.85097309  0.26316546  0.37119265    -0.54600
C964        C  0.91089472  0.21762933  0.38331266     0.78100
O965        O  0.89693162  0.23112839  0.30526610    -0.55700
C966        C  0.84166120  0.27481563  0.35345722     0.78000
C967        C  0.92149156  0.28725555  0.34330100     0.80400
Cd968      Cd  0.88669231  0.24761049  0.34677411     1.37500
O969        O  0.88943927  0.21252065  0.37621590    -0.54600
O970        O  0.90147204  0.28976070  0.35448487    -0.53400
C971        C  0.88176481  0.21359706  0.30593640     0.80400
O972        O  0.92453112  0.26726340  0.33189799    -0.55700
O973        O  0.91958589  0.23764485  0.37587344    -0.54200
O974        O  0.85208937  0.27239984  0.33303055    -0.54200
O975        O  0.86837607  0.21259382  0.32466644    -0.53400
O976        O  0.95906285  0.36512334  0.36649317    -0.54600
C977        C  0.02045269  0.41194425  0.39470424     0.78100
O978        O  0.98121478  0.35332198  0.43743924    -0.55700
C979        C  0.95794200  0.34187662  0.36611952     0.78000
C980        C  0.03524178  0.33873611  0.37882108     0.80400
Cd981      Cd  0.99449674  0.36618937  0.39550940     1.37500
O982        O  0.00372047  0.40772185  0.37903374    -0.54600
O983        O  0.02327636  0.35341156  0.36558625    -0.53400
C984        C  0.96512918  0.37002514  0.43857910     0.80400
O985        O  0.02876403  0.33664865  0.40103661    -0.55700
O986        O  0.02403724  0.39572039  0.41073742    -0.54200
O987        O  0.97415952  0.33056424  0.37804069    -0.54200
O988        O  0.96385141  0.38445261  0.42062275    -0.53400
O989        O  0.12793731  0.47365114  0.35076277    -0.54600
C990        C  0.10855637  0.52349744  0.40960729     0.78100
O991        O  0.08008707  0.53675420  0.33832810    -0.55700
C992        C  0.11660652  0.46702376  0.33153031     0.78000
C993        C  0.05298895  0.47087218  0.37528893     0.80400
Cd994      Cd  0.09409589  0.50147850  0.36401771     1.37500
O995        O  0.12070160  0.50586906  0.40066586    -0.54600
O996        O  0.07393889  0.46786475  0.38470215    -0.53400
C997        C  0.10183144  0.54325216  0.33347043     0.80400
O998        O  0.05025041  0.48951199  0.36178334    -0.55700
O999        O  0.08927806  0.52954148  0.39826897    -0.54200
O1000       O  0.09573407  0.47615199  0.32799235    -0.54200
O1001       O  0.11875969  0.53089786  0.34316525    -0.53400
O1002       O  0.14448893  0.35626237  0.25382796    -0.54600
C1003       C  0.14665212  0.42637878  0.21493135     0.78100
O1004       O  0.17931105  0.42129284  0.28712836    -0.55700
C1005       C  0.15810416  0.34747584  0.27045301     0.78000
C1006       C  0.21066183  0.38588771  0.22208081     0.80400
Cd1007     Cd  0.16826344  0.39512960  0.25091126     1.37500
O1008       O  0.13450064  0.40798094  0.22234853    -0.54600
O1009       O  0.19042468  0.37499777  0.21880757    -0.53400
C1010       C  0.15710097  0.42566083  0.29212631     0.80400
O1011       O  0.21214303  0.40041733  0.24022652    -0.55700
O1012       O  0.16773894  0.42940787  0.22387324    -0.54200
O1013       O  0.17631877  0.36026872  0.27703113    -0.54200
O1014       O  0.14119782  0.41537950  0.27872161    -0.53400
O1015       O  0.13088795  0.65230354  0.25195055    -0.54600
C1016       C  0.13930033  0.58528430  0.29208645     0.78100
O1017       O  0.17608415  0.59405476  0.21977643    -0.55700
C1018       C  0.14433589  0.66350995  0.23677626     0.78000
C1019       C  0.19924727  0.63316617  0.28667295     0.80400
Cd1020     Cd  0.15966136  0.61730132  0.25614980     1.37500
O1021       O  0.12591685  0.60190898  0.28299966    -0.54600
O1022       O  0.17874302  0.64371814  0.28597621    -0.53400
C1023       C  0.15492453  0.58698059  0.21319640     0.80400
O1024       O  0.20254507  0.61554010  0.27181315    -0.55700
O1025       O  0.16105073  0.58411434  0.28464953    -0.54200
O1026       O  0.16443182  0.65344570  0.23133448    -0.54200
O1027       O  0.13728929  0.59431818  0.22610573    -0.53400
O1028       O  0.12401159  0.49692844  0.10169353    -0.54600
C1029       C  0.12020790  0.54318578  0.17038878     0.78100
O1030       O  0.05655222  0.52100563  0.14313221    -0.55700
C1031       C  0.10862797  0.48093653  0.09435928     0.78000
C1032       C  0.10840033  0.46639912  0.17193053     0.80400
Cd1033     Cd  0.09955174  0.50644868  0.13934145     1.37500
O1034       O  0.13263731  0.53640471  0.15193933    -0.54600
O1035       O  0.12505216  0.47947029  0.16261902    -0.53400
C1036       C  0.05969580  0.53848157  0.12818910     0.80400
O1037       O  0.08654877  0.47150279  0.16593451    -0.55700
O1038       O  0.09979431  0.53290202  0.17359416    -0.54200
O1039       O  0.08949607  0.47827396  0.10696348    -0.54200
O1040       O  0.08009390  0.53928959  0.11732608    -0.53400
O1041       O  0.26385652  0.61989922  0.34656776    -0.54600
C1042       C  0.30603969  0.62723290  0.41403956     0.78100
O1043       O  0.28360780  0.69183520  0.38362726    -0.55700
C1044       C  0.24822537  0.63376277  0.33649605     0.78000
C1045       C  0.22860576  0.63913712  0.41340306     0.80400
Cd1046     Cd  0.27006644  0.64788858  0.38220632     1.37500
O1047       O  0.29946654  0.61524086  0.39516217    -0.54600
O1048       O  0.24303065  0.62277608  0.40591662    -0.53400
C1049       C  0.30035331  0.68850915  0.36793315     0.80400
O1050       O  0.23285820  0.66093233  0.40641177    -0.55700
O1051       O  0.29617248  0.64791673  0.41729685    -0.54200
O1052       O  0.24370067  0.65383608  0.34723240    -0.54200
O1053       O  0.30193487  0.66732232  0.35864608    -0.53400
O1054       O  0.10171511  0.64342957  0.49297534    -0.54600
C1055       C  0.17098475  0.63610288  0.45365882     0.78100
O1056       O  0.15971844  0.59581613  0.52164274    -0.55700
C1057       C  0.09039483  0.62957465  0.50771385     0.78000
C1058       C  0.11724418  0.57643563  0.45498817     0.80400
Cd1059     Cd  0.13608378  0.61423826  0.48680065     1.37500
O1060       O  0.15204644  0.64797096  0.45980016    -0.54600
O1061       O  0.11093863  0.59864334  0.45387611    -0.53400
C1062       C  0.16504720  0.61650944  0.53100073     0.80400
O1063       O  0.13261090  0.57080288  0.47149651    -0.55700
O1064       O  0.17315988  0.61489484  0.46262599    -0.54200
O1065       O  0.10008681  0.60903287  0.51220804    -0.54200
O1066       O  0.15669850  0.63513900  0.52016464    -0.53400
O1067       O  0.24723679  0.63404925  0.65092846    -0.54600
C1068       C  0.20646852  0.64669478  0.57950908     0.78100
O1069       O  0.23231354  0.70560273  0.61522436    -0.55700
C1070       C  0.26421083  0.64693971  0.66047033     0.78000
C1071       C  0.28304110  0.65021111  0.58342188     0.80400
Cd1072     Cd  0.24277050  0.66138954  0.61458711     1.37500
O1073       O  0.21166500  0.63207434  0.59684507    -0.54600
O1074       O  0.26764214  0.63460945  0.59073531    -0.53400
C1075       C  0.21374473  0.70227734  0.62872215     0.80400
O1076       O  0.28034430  0.67221399  0.59071150    -0.55700
O1077       O  0.21768863  0.66696543  0.57916578    -0.54200
O1078       O  0.27022042  0.66625024  0.64918612    -0.54200
O1079       O  0.21027839  0.68080085  0.63675944    -0.53400
O1080       O  0.41304104  0.64520356  0.51110109    -0.54600
C1081       C  0.34148969  0.64343848  0.54542637     0.78100
O1082       O  0.35275526  0.60512743  0.47620425    -0.55700
C1083       C  0.42329163  0.63150607  0.49542904     0.78000
C1084       C  0.38494141  0.57707636  0.54366352     0.80400
Cd1085     Cd  0.37563924  0.61912145  0.51367713     1.37500
O1086       O  0.36214648  0.65326194  0.54145046    -0.54600
O1087       O  0.39428482  0.59796540  0.54771061    -0.53400
C1088       C  0.34898834  0.62699092  0.46929654     0.80400
O1089       O  0.37137525  0.57504922  0.52490745    -0.55700
O1090       O  0.33741981  0.62309310  0.53501139    -0.54200
O1091       O  0.41206994  0.61200263  0.48958572    -0.54200
O1092       O  0.35791150  0.64392113  0.48236733    -0.53400
O1093       O  0.64832261  0.16339667  0.74185577    -0.54600
C1094       C  0.64777592  0.08958482  0.77813306     0.78100
O1095       O  0.68642961  0.10019625  0.71183920    -0.55700
C1096       C  0.66388399  0.17217600  0.72704074     0.78000
C1097       C  0.71068485  0.13414400  0.78090218     0.80400
Cd1098     Cd  0.67169953  0.12461746  0.74744608     1.37500
O1099       O  0.63677805  0.10952942  0.77340992    -0.54600
O1100       O  0.68952469  0.14323070  0.78309246    -0.53400
C1101       C  0.66509882  0.09841194  0.70273621     0.80400
O1102       O  0.71456934  0.12104718  0.76208795    -0.55700
O1103       O  0.66850703  0.08655202  0.76858315    -0.54200
O1104       O  0.68289129  0.15964562  0.72317334    -0.54200
O1105       O  0.64801364  0.10886255  0.71424593    -0.53400
O1106       O  0.63501509  0.97977077  0.83793455    -0.54600
C1107       C  0.61144001  0.03328201  0.89735043     0.78100
O1108       O  0.58769028  0.04288483  0.82588052    -0.55700
C1109       C  0.62159826  0.97170594  0.82058473     0.78000
C1110       C  0.56217827  0.97671122  0.86693545     0.80400
Cd1111     Cd  0.60146597  0.00809695  0.85246386     1.37500
O1112       O  0.62560606  0.01610096  0.89059792    -0.54600
O1113       O  0.58320010  0.97603427  0.87670541    -0.53400
C1114       C  0.60948374  0.04848463  0.82010857     0.80400
O1115       O  0.55844001  0.99343226  0.85127869    -0.55700
O1116       O  0.59328750  0.03785453  0.88376655    -0.54200
O1117       O  0.60030984  0.98039107  0.81887207    -0.54200
O1118       O  0.62632137  0.03569297  0.82946369    -0.53400
O1119       O  0.63197817  0.86429986  0.73597513    -0.54600
C1120       C  0.63277113  0.93160928  0.69910512     0.78100
O1121       O  0.67682733  0.92456118  0.76755974    -0.55700
C1122       C  0.64614269  0.85269396  0.75012139     0.78000
C1123       C  0.69992654  0.88966475  0.69979351     0.80400
Cd1124     Cd  0.65954305  0.90029878  0.73184675     1.37500
O1125       O  0.62361870  0.91124268  0.70540037    -0.54600
O1126       O  0.67921939  0.87943325  0.69806119    -0.53400
C1127       C  0.65581919  0.92993632  0.77565758     0.80400
O1128       O  0.70275815  0.90470013  0.71731602    -0.55700
O1129       O  0.65360481  0.93676173  0.70779403    -0.54200
O1130       O  0.66639108  0.86285654  0.75519082    -0.54200
O1131       O  0.63784468  0.92096844  0.76409696    -0.53400
O1132       O  0.63976863  0.05549572  0.63723503    -0.54600
C1133       C  0.61317231  0.00165924  0.58047160     0.78100
O1134       O  0.59912953  0.98979680  0.65376044    -0.55700
C1135       C  0.62767335  0.06395900  0.65517211     0.78000
C1136       C  0.56239379  0.05304268  0.61839352     0.80400
Cd1137     Cd  0.60627408  0.02582616  0.62645306     1.37500
O1138       O  0.62646457  0.02015678  0.58569773    -0.54600
O1139       O  0.58142513  0.05560775  0.60551063    -0.53400
C1140       C  0.62186994  0.98706021  0.65774743     0.80400
O1141       O  0.56277286  0.03623162  0.63437989    -0.55700
O1142       O  0.59704193  0.99568994  0.59581813    -0.54200
O1143       O  0.60658252  0.05527332  0.65863687    -0.54200
O1144       O  0.63624314  0.00181539  0.64736401    -0.53400
O1145       O  0.89100382  0.99985707  0.39195700    -0.54600
C1146       C  0.87635459  0.04461198  0.33355602     0.78100
O1147       O  0.95414341  0.03459004  0.34737624    -0.55700
C1148       C  0.90757053  0.98514340  0.39874803     0.78000
C1149       C  0.91739762  0.97795746  0.31706764     0.80400
Cd1150     Cd  0.91367528  0.01413042  0.35527222     1.37500
O1151       O  0.88636180  0.05041162  0.35357515    -0.54600
O1152       O  0.90683118  0.97365693  0.33711669    -0.53400
C1153       C  0.95231240  0.04913769  0.36538143     0.80400
O1154       O  0.92854766  0.99829720  0.31538828    -0.55700
O1155       O  0.88085994  0.02342941  0.32556308    -0.54200
O1156       O  0.92664302  0.98432361  0.38583266    -0.54200
O1157       O  0.93384496  0.04628605  0.37880120    -0.53400
O1158       O  0.87837702  0.15090757  0.25471359    -0.54600
C1159       C  0.89473822  0.09312691  0.20806293     0.78100
O1160       O  0.86376574  0.09741112  0.28061080    -0.55700
C1161       C  0.86118867  0.15687841  0.26904648     0.78000
C1162       C  0.81643179  0.12055704  0.20617764     0.80400
Cd1163     Cd  0.85682634  0.11293274  0.23957161     1.37500
O1164       O  0.89108464  0.08471861  0.22916407    -0.54600
O1165       O  0.83393960  0.13545080  0.20895710    -0.53400
C1166       C  0.85322645  0.07696358  0.27757128     0.80400
O1167       O  0.81649382  0.10200572  0.21999745    -0.55700
O1168       O  0.88321876  0.11237010  0.20271117    -0.54200
O1169       O  0.84245919  0.14329842  0.26880098    -0.54200
O1170       O  0.84291120  0.07333799  0.25707550    -0.53400
O1171       O  0.87962223  0.86673541  0.23222665    -0.54600
C1172       C  0.89179328  0.92604516  0.27855371     0.78100
O1173       O  0.87315776  0.92011900  0.20633870    -0.55700
C1174       C  0.86354539  0.85969563  0.21694766     0.78000
C1175       C  0.81544041  0.89715078  0.27592659     0.80400
Cd1176     Cd  0.85705414  0.90448657  0.24427607     1.37500
O1177       O  0.88476590  0.93722490  0.25969104    -0.54600
O1178       O  0.83257821  0.88190014  0.27362923    -0.53400
C1179       C  0.85799205  0.93733916  0.20351972     0.80400
O1180       O  0.81641809  0.91582393  0.26229735    -0.55700
O1181       O  0.88477917  0.90407314  0.28049370    -0.54200
O1182       O  0.84461247  0.87276957  0.21511642    -0.54200
O1183       O  0.84126239  0.93923550  0.21939895    -0.53400
O1184       O  0.90058976  0.01342169  0.09685840    -0.54600
C1185       C  0.88942932  0.96899099  0.15154385     0.78100
O1186       O  0.96658441  0.98820334  0.14564509    -0.55700
C1187       C  0.91468437  0.03051229  0.08996640     0.78000
C1188       C  0.92401885  0.04055273  0.17326412     0.80400
Cd1189     Cd  0.92482267  0.00424611  0.13442222     1.37500
O1190       O  0.90697708  0.96310853  0.13793153    -0.54600
O1191       O  0.91865635  0.04568001  0.15140890    -0.53400
C1192       C  0.96863477  0.97555147  0.12630620     0.80400
O1193       O  0.93211401  0.01918820  0.17701120    -0.55700
O1194       O  0.88618093  0.99164403  0.15494757    -0.54200
O1195       O  0.93324996  0.03477461  0.10315285    -0.54200
O1196       O  0.95184934  0.97805660  0.11063898    -0.53400
O1197       O  0.72550980  0.89599996  0.38780163    -0.54600
C1198       C  0.78037342  0.87044869  0.33033439     0.78100
O1199       O  0.78741741  0.85158612  0.40342402    -0.55700
C1200       C  0.71762595  0.88326425  0.40557886     0.78000
C1201       C  0.72025443  0.82522821  0.35747964     0.80400
Cd1202     Cd  0.75340931  0.86229492  0.37421120     1.37500
O1203       O  0.76431423  0.88591185  0.33698190    -0.54600
O1204       O  0.72134281  0.84655847  0.34852389    -0.53400
C1205       C  0.79200922  0.87420862  0.40727862     0.80400
O1206       O  0.73591038  0.81985834  0.37390200    -0.55700
O1207       O  0.78305619  0.85159956  0.34350611    -0.54200
O1208       O  0.72593376  0.86179570  0.40780352    -0.54200
O1209       O  0.77935821  0.88966721  0.39572113    -0.53400
O1210       O  0.60839050  0.90635184  0.48453723    -0.54600
C1211       C  0.67850659  0.90431583  0.52546769     0.78100
O1212       O  0.67428580  0.94306817  0.45648484    -0.55700
C1213       C  0.60126000  0.92056622  0.46762738     0.78000
C1214       C  0.63743601  0.97012059  0.52273590     0.80400
Cd1215     Cd  0.64763833  0.92923835  0.49104618     1.37500
O1216       O  0.65935600  0.89342583  0.51779585    -0.54600
O1217       O  0.62674997  0.94956297  0.52428671    -0.53400
C1218       C  0.67822961  0.92128815  0.44926552     0.80400
O1219       O  0.65236798  0.97266293  0.50523239    -0.55700
O1220       O  0.68251008  0.92553668  0.51730494    -0.54200
O1221       O  0.61496131  0.93854929  0.46267010    -0.54200
O1222       O  0.66788334  0.90435665  0.46111266    -0.53400
O1223       O  0.91283953  0.89223866  0.49713370    -0.54600
C1224       C  0.84393385  0.88352174  0.45388643     0.78100
O1225       O  0.84425489  0.92774792  0.51996829    -0.55700
C1226       C  0.91768735  0.90753484  0.51408847     0.78000
C1227       C  0.88278524  0.95150617  0.45485216     0.80400
Cd1228     Cd  0.87262674  0.91200703  0.48777452     1.37500
O1229       O  0.86273043  0.87376534  0.46343120    -0.54600
O1230       O  0.89459911  0.93158484  0.45448511    -0.53400
C1231       C  0.83964920  0.90646828  0.52805219     0.80400
O1232       O  0.86684973  0.95386918  0.47145769    -0.55700
O1233       O  0.83950718  0.90540734  0.46004049    -0.54200
O1234       O  0.90237176  0.92440937  0.51772652    -0.54200
O1235       O  0.85070783  0.88882243  0.51794348    -0.53400
O1236       O  0.74911478  0.87634084  0.63742015    -0.54600
C1237       C  0.79433067  0.87179172  0.56852358     0.78100
O1238       O  0.77111457  0.80859473  0.59794494    -0.55700
C1239       C  0.73218723  0.86184279  0.64416354     0.78000
C1240       C  0.71730140  0.86302833  0.56701140     0.80400
Cd1241     Cd  0.75722466  0.85219564  0.59934805     1.37500
O1242       O  0.78743953  0.88456258  0.58675899    -0.54600
O1243       O  0.73037903  0.87907963  0.57760218    -0.53400
C1244       C  0.78819092  0.81241637  0.61335878     0.80400
O1245       O  0.72230161  0.84075241  0.57155838    -0.55700
O1246       O  0.78393430  0.85134087  0.56520192    -0.54200
O1247       O  0.72808057  0.84325893  0.63083809    -0.54200
O1248       O  0.78932330  0.83362203  0.62283482    -0.53400
C1249       C  0.82175882  0.90196413  0.54776095    -0.13200
C1250       C  0.81373385  0.87901529  0.55149873    -0.28400
H1251       H  0.81418491  0.91723580  0.55795011     0.15800
H1252       H  0.82071061  0.86428690  0.54010079     0.16400
C1253       C  0.69589938  0.89408319  0.54327855    -0.13200
C1254       C  0.69757164  0.87044312  0.54991889    -0.28400
H1255       H  0.70906861  0.90715591  0.55057275     0.15800
H1256       H  0.68529997  0.85676783  0.54223281     0.16400
C1257       C  0.81040677  0.88361567  0.42461498    -0.13200
C1258       C  0.82755078  0.87057560  0.43640887    -0.28400
H1259       H  0.80963092  0.90328723  0.42762098     0.15800
H1260       H  0.82943987  0.85103286  0.43326169     0.16400
C1261       C  0.69959366  0.89186339  0.42347514    -0.13200
C1262       C  0.69446702  0.91542414  0.42846767    -0.28400
H1263       H  0.69142538  0.87758365  0.43456715     0.15800
H1264       H  0.70308560  0.93009610  0.41828818     0.16400
C1265       C  0.79603710  0.89365382  0.29438875    -0.13200
C1266       C  0.79621228  0.87380077  0.30886305    -0.28400
H1267       H  0.78269290  0.90805470  0.29720870     0.15800
H1268       H  0.80974059  0.85961426  0.30576786     0.16400
C1269       C  0.87569113  0.94999467  0.16468609    -0.13200
C1270       C  0.86110588  0.95525499  0.18366644    -0.28400
H1271       H  0.88159816  0.93121037  0.16187826     0.15800
H1272       H  0.85469391  0.97382641  0.18663603     0.16400
C1273       C  0.90952018  0.08009889  0.18958937    -0.13200
C1274       C  0.91893152  0.05770531  0.19363484    -0.28400
H1275       H  0.90911312  0.08727433  0.17113173     0.15800
H1276       H  0.91939171  0.05042925  0.21204386     0.16400
C1277       C  0.90495334  0.96880608  0.41996581    -0.13200
C1278       C  0.88666488  0.97057152  0.43616308    -0.28400
H1279       H  0.91825769  0.95419095  0.42177632     0.15800
H1280       H  0.87366963  0.98551697  0.43493629     0.16400
C1281       C  0.91456157  0.96124985  0.29592423    -0.13200
C1282       C  0.90516653  0.93860458  0.29850166    -0.28400
H1283       H  0.91661013  0.96899981  0.27782189     0.15800
H1284       H  0.90394408  0.93059141  0.31657237     0.16400
C1285       C  0.85491172  0.05762034  0.29622382    -0.13200
C1286       C  0.86281569  0.06274843  0.31898670    -0.28400
H1287       H  0.85347991  0.03872993  0.29006532     0.15800
H1288       H  0.86369463  0.08168262  0.32512926     0.16400
C1289       C  0.63331190  0.98956889  0.54124773    -0.13200
C1290       C  0.61609979  0.98641853  0.55838901    -0.28400
H1291       H  0.64534540  0.00541188  0.54184384     0.15800
H1292       H  0.60412552  0.97052315  0.55717769     0.16400
C1293       C  0.71928339  0.88474363  0.68160650    -0.13200
C1294       C  0.71662165  0.86612242  0.66566138    -0.28400
H1295       H  0.73488317  0.89700951  0.68047627     0.15800
H1296       H  0.70118673  0.85371933  0.66762218     0.16400
C1297       C  0.62007471  0.94878168  0.68255956    -0.13200
C1298       C  0.63219057  0.96834131  0.67396911    -0.28400
H1299       H  0.60119001  0.94540360  0.67738077     0.15800
H1300       H  0.65135788  0.97077771  0.67868879     0.16400
C1301       C  0.62893361  0.95299059  0.80262174    -0.13200
C1302       C  0.65189864  0.94644293  0.79693498    -0.28400
H1303       H  0.61389980  0.94541222  0.79195759     0.15800
H1304       H  0.66739395  0.95427400  0.80664475     0.16400
C1305       C  0.65978221  0.08405834  0.68037431    -0.13200
C1306       C  0.63669985  0.08284661  0.67205397    -0.28400
H1307       H  0.67393464  0.07270429  0.67239886     0.15800
H1308       H  0.62264469  0.09359748  0.68099609     0.16400
C1309       C  0.63835031  0.07036591  0.79437231    -0.13200
C1310       C  0.61554020  0.06877862  0.80325493    -0.28400
H1311       H  0.65148749  0.05626787  0.79910842     0.15800
H1312       H  0.60167705  0.08196480  0.79809315     0.16400
C1313       C  0.30255871  0.64199907  0.56693542    -0.13200
C1314       C  0.32287258  0.65471407  0.56147962    -0.28400
H1315       H  0.30027256  0.62360769  0.55959589     0.15800
H1316       H  0.32601873  0.67280018  0.56920177     0.16400
C1317       C  0.18071604  0.61917525  0.55306771    -0.13200
C1318       C  0.18836137  0.64157371  0.56011266    -0.28400
H1319       H  0.18710857  0.60295322  0.56250442     0.15800
H1320       H  0.18254220  0.65741659  0.54968534     0.16400
C1321       C  0.18983586  0.64618345  0.43697375    -0.13200
C1322       C  0.20847098  0.63189391  0.42975511    -0.28400
H1323       H  0.18842006  0.66492580  0.43063794     0.15800
H1324       H  0.20906254  0.61303139  0.43595523     0.16400
C1325       C  0.32393460  0.61786486  0.43198779    -0.13200
C1326       C  0.33414545  0.63365702  0.44793604    -0.28400
H1327       H  0.32787502  0.59841382  0.43280102     0.15800
H1328       H  0.33051583  0.65312235  0.44600867     0.16400
C1329       C  0.21745179  0.64118278  0.30487875    -0.13200
C1330       C  0.23498902  0.62659171  0.31393564    -0.28400
H1331       H  0.21412161  0.65885129  0.31345247     0.15800
H1332       H  0.23796377  0.60849992  0.30618819     0.16400
C1333       C  0.12767148  0.56217742  0.18801862    -0.13200
C1334       C  0.15050195  0.57041340  0.19207036    -0.28400
H1335       H  0.11306197  0.56844323  0.19985466     0.15800
H1336       H  0.16565961  0.56393428  0.18111550     0.16400
C1337       C  0.13786622  0.44401935  0.19670688    -0.13200
C1338       C  0.11460159  0.44651628  0.18919349    -0.28400
H1339       H  0.15164705  0.45661311  0.18993197     0.15800
H1340       H  0.10031440  0.43471736  0.19626419     0.16400
C1341       C  0.11709507  0.53725382  0.43141985    -0.13200
C1342       C  0.10689974  0.55886151  0.43718907    -0.28400
H1343       H  0.13326831  0.53101953  0.44110184     0.15800
H1344       H  0.09146832  0.56535873  0.42650062     0.16400
C1345       C  0.13101623  0.56756219  0.31039120    -0.13200
C1346       C  0.10765485  0.56369450  0.31681368    -0.28400
H1347       H  0.14524576  0.55603454  0.31802971     0.15800
H1348       H  0.09302502  0.57450089  0.30891806     0.16400
C1349       C  0.14965923  0.44228354  0.31215309    -0.13200
C1350       C  0.12623304  0.44944315  0.31361576    -0.28400
H1351       H  0.16327570  0.44937470  0.32484296     0.15800
H1352       H  0.11316127  0.44289313  0.30007135     0.16400
C1353       C  0.03635893  0.43378730  0.39414957    -0.13200
C1354       C  0.03327630  0.45262562  0.37875314    -0.28400
H1355       H  0.05233381  0.43345504  0.40598729     0.15800
H1356       H  0.01714579  0.45350680  0.36717141     0.16400
C1357       C  0.88029098  0.19483201  0.28630786    -0.13200
C1358       C  0.86248221  0.17781815  0.28621157    -0.28400
H1359       H  0.89434122  0.19449614  0.27237330     0.15800
H1360       H  0.84819381  0.17882726  0.29989214     0.16400
C1361       C  0.93785024  0.32825491  0.35410323    -0.13200
C1362       C  0.94141788  0.30539491  0.34562194    -0.28400
H1363       H  0.91952719  0.33572053  0.35519116     0.15800
H1364       H  0.95994703  0.29866072  0.34347270     0.16400
C1365       C  0.96784397  0.08345753  0.39007169    -0.13200
C1366       C  0.97005849  0.06915434  0.37012328    -0.28400
H1367       H  0.95408421  0.07904854  0.40361837     0.15800
H1368       H  0.98403524  0.07299694  0.35664810     0.16400
C1369       C  0.94902417  0.20564194  0.40410160    -0.13200
C1370       C  0.92597329  0.20006090  0.39726881    -0.28400
H1371       H  0.95522862  0.22453960  0.40340600     0.15800
H1372       H  0.91957275  0.18124927  0.39826694     0.16400
C1373       C  0.15288983  0.32421226  0.28298635    -0.13200
C1374       C  0.13327802  0.31005453  0.27822024    -0.28400
H1375       H  0.16469012  0.31975215  0.29832136     0.15800
H1376       H  0.12146281  0.31403595  0.26277061     0.16400
C1377       C  0.05938210  0.18064301  0.35296558    -0.13200
C1378       C  0.05494285  0.19998694  0.33852851    -0.28400
H1379       H  0.07816039  0.17605641  0.35746049     0.15800
H1380       H  0.03639762  0.20444243  0.33311189     0.16400
C1381       C  0.06864561  0.30765679  0.37892832    -0.13200
C1382       C  0.05488819  0.32443707  0.36751651    -0.28400
H1383       H  0.06744338  0.30511981  0.39853230     0.15800
H1384       H  0.05698477  0.32695815  0.34796060     0.16400
C1385       C  0.89844325  0.57368833  0.81747030    -0.13200
C1386       C  0.87556315  0.58013830  0.81148533    -0.28400
H1387       H  0.91402105  0.58311128  0.80961306     0.15800
H1388       H  0.86033874  0.56977218  0.81890007     0.16400
C1389       C  0.86473042  0.56878208  0.68079320    -0.13200
C1390       C  0.87740662  0.57971522  0.69886276    -0.28400
H1391       H  0.84548836  0.57274490  0.67807260     0.15800
H1392       H  0.89683767  0.57609594  0.70069179     0.16400
C1393       C  0.85889896  0.44514227  0.80224853    -0.13200
C1394       C  0.88124020  0.45479541  0.80604324    -0.28400
H1395       H  0.84349560  0.45075684  0.81333106     0.15800
H1396       H  0.89608193  0.44947001  0.79404474     0.16400
C1397       C  0.87542900  0.44526575  0.68927951    -0.13200
C1398       C  0.89787947  0.45207660  0.68200359    -0.28400
H1399       H  0.85974694  0.45536206  0.68250640     0.15800
H1400       H  0.91397267  0.44277505  0.68888297     0.16400
C1401       C  0.88738189  0.31545886  0.79106040    -0.13200
C1402       C  0.86819484  0.33081469  0.79090102    -0.28400
H1403       H  0.90100103  0.31628467  0.77674627     0.15800
H1404       H  0.85449873  0.32906701  0.80509712     0.16400
C1405       C  0.94254537  0.20843898  0.88082544    -0.13200
C1406       C  0.95501754  0.19096204  0.86886336    -0.28400
H1407       H  0.94443275  0.20977457  0.90055032     0.15800
H1408       H  0.95280025  0.18843333  0.84931436     0.16400
C1409       C  0.07280475  0.20305155  0.87512410    -0.13200
C1410       C  0.06734269  0.19878409  0.89862885    -0.28400
H1411       H  0.06260929  0.19352862  0.86088191     0.15800
H1412       H  0.07633437  0.20899260  0.91317478     0.16400
C1413       C  0.96657782  0.44447066  0.89526408    -0.13200
C1414       C  0.96900764  0.46221636  0.87858023    -0.28400
H1415       H  0.95017580  0.44373501  0.90636012     0.15800
H1416       H  0.98554116  0.46364696  0.86777971     0.16400
C1417       C  0.95889788  0.32894212  0.88229971    -0.13200
C1418       C  0.93917592  0.32015283  0.89392625    -0.28400
H1419       H  0.96222570  0.32323301  0.86357967     0.15800
H1420       H  0.93450237  0.32653306  0.91210468     0.16400
C1421       C  0.06465185  0.33819703  0.86295103    -0.13200
C1422       C  0.07365542  0.31822375  0.87399237    -0.28400
H1423       H  0.06857676  0.34186361  0.84390286     0.15800
H1424       H  0.07003100  0.31539134  0.89326755     0.16400
C1425       C  0.20308199  0.29627825  0.87045407    -0.13200
C1426       C  0.18670212  0.29865848  0.85230841    -0.28400
H1427       H  0.20188895  0.28103099  0.88306815     0.15800
H1428       H  0.18840431  0.31390664  0.83973001     0.16400
C1429       C  0.31512241  0.36894660  0.93425149    -0.13200
C1430       C  0.31845559  0.39198118  0.94241822    -0.28400
H1431       H  0.32676499  0.35419830  0.94056536     0.15800
H1432       H  0.30569497  0.40610542  0.93680207     0.16400
C1433       C  0.07260571  0.38680920  0.97951054    -0.13200
C1434       C  0.06407720  0.40203297  0.96225522    -0.28400
H1435       H  0.06370464  0.36930193  0.98265422     0.15800
H1436       H  0.07364618  0.41916523  0.95892469     0.16400
C1437       C  0.11241063  0.46463949  0.07315687    -0.13200
C1438       C  0.13187889  0.46503197  0.05828386    -0.28400
H1439       H  0.09885307  0.45022469  0.07077036     0.15800
H1440       H  0.14535526  0.47959844  0.05964092     0.16400
C1441       C  0.18929256  0.38111024  0.94957077    -0.13200
C1442       C  0.20092517  0.39488616  0.93292882    -0.28400
H1443       H  0.19189096  0.36138141  0.94920029     0.15800
H1444       H  0.19808186  0.41452381  0.93212260     0.16400
C1445       C  0.22907489  0.36553839  0.18696355    -0.13200
C1446       C  0.23087250  0.38266837  0.20456311    -0.28400
H1447       H  0.21405240  0.35247437  0.18741135     0.15800
H1448       H  0.24602066  0.39556556  0.20479345     0.16400
C1449       C  0.21102031  0.37899801  0.07229309    -0.13200
C1450       C  0.19280564  0.36520442  0.06303719    -0.28400
H1451       H  0.21176140  0.39834507  0.06776237     0.15800
H1452       H  0.19069805  0.34615918  0.06822484     0.16400
C1453       C  0.32817307  0.39233417  0.05427415    -0.13200
C1454       C  0.31883102  0.40373099  0.07391936    -0.28400
H1455       H  0.32494440  0.37281393  0.05193425     0.15800
H1456       H  0.32240885  0.42302541  0.07723948     0.16400
C1457       C  0.96232942  0.56727859  0.61814589    -0.13200
C1458       C  0.95879949  0.58486108  0.60140069    -0.28400
H1459       H  0.97887181  0.56712835  0.62915063     0.15800
H1460       H  0.94245214  0.58431917  0.59008918     0.16400
C1461       C  0.05722826  0.62324161  0.53712381    -0.13200
C1462       C  0.06742103  0.63720897  0.51972142    -0.28400
H1463       H  0.06558674  0.60584896  0.54178860     0.15800
H1464       H  0.05992799  0.65513392  0.51563446     0.16400
C1465       C  0.82310431  0.79822467  0.63732470    -0.13200
C1466       C  0.80681912  0.79370863  0.61938743    -0.28400
H1467       H  0.82093626  0.81452548  0.64855788     0.15800
H1468       H  0.80820103  0.77728479  0.60824845     0.16400
C1469       C  0.87443361  0.71312440  0.71550648    -0.13200
C1470       C  0.85791460  0.69504971  0.71269951    -0.28400
H1471       H  0.88620496  0.71366333  0.73151419     0.15800
H1472       H  0.84606212  0.69507507  0.69673053     0.16400
C1473       C  0.93936051  0.70559274  0.62444698    -0.13200
C1474       C  0.94431648  0.70009834  0.60103205    -0.28400
H1475       H  0.95002000  0.69709210  0.63885411     0.15800
H1476       H  0.93460556  0.70902582  0.58624305     0.16400
C1477       C  0.93913589  0.90587822  0.53027943    -0.13200
C1478       C  0.95746883  0.88983650  0.52761137    -0.28400
H1479       H  0.93893210  0.91779605  0.54623455     0.15800
H1480       H  0.95846626  0.87820482  0.51151553     0.16400
C1481       C  0.94759234  0.82520205  0.61739324    -0.13200
C1482       C  0.94057950  0.82139239  0.64056454    -0.28400
H1483       H  0.94017113  0.81359386  0.60297729     0.15800
H1484       H  0.94830918  0.83222458  0.65538832     0.16400
C1485       C  0.17805686  0.71835603  0.65007263    -0.13200
C1486       C  0.19597991  0.72195505  0.63379018    -0.28400
H1487       H  0.17833497  0.70208422  0.66141815     0.15800
H1488       H  0.19647764  0.73852085  0.62290674     0.16400
C1489       C  0.05751142  0.69754450  0.62127280    -0.13200
C1490       C  0.06264207  0.70200578  0.64491956    -0.28400
H1491       H  0.06640332  0.70848211  0.60735212     0.15800
H1492       H  0.05318453  0.69219563  0.65926749     0.16400
C1493       C  0.06635591  0.81714534  0.62754308    -0.13200
C1494       C  0.06352833  0.82415686  0.60419262    -0.28400
H1495       H  0.05463163  0.82506551  0.64143494     0.15800
H1496       H  0.07445778  0.81607765  0.58978436     0.16400
C1497       C  0.60841383  0.57315451  0.17929691    -0.13200
C1498       C  0.63074717  0.58333550  0.18109683    -0.28400
H1499       H  0.59365405  0.57938760  0.19092501     0.15800
H1500       H  0.64546740  0.57603213  0.17002177     0.16400
C1501       C  0.64652050  0.57122641  0.31429006    -0.13200
C1502       C  0.63395252  0.57883527  0.29466104    -0.28400
H1503       H  0.66513950  0.57744191  0.31746568     0.15800
H1504       H  0.61503485  0.57318195  0.29229632     0.16400
C1505       C  0.63286929  0.44863345  0.19744482    -0.13200
C1506       C  0.64429962  0.45893801  0.17834182    -0.28400
H1507       H  0.61366165  0.45263678  0.20033113     0.15800
H1508       H  0.66324642  0.45470473  0.17443959     0.16400
C1509       C  0.63945381  0.45315322  0.30949961    -0.13200
C1510       C  0.61740039  0.45722427  0.31933719    -0.28400
H1511       H  0.65451688  0.46538310  0.31407420     0.15800
H1512       H  0.60181752  0.44587742  0.31433584     0.16400
C1513       C  0.54811599  0.43691213  0.09996688    -0.13200
C1514       C  0.54424924  0.45371047  0.11754672    -0.28400
H1515       H  0.56415668  0.43866233  0.08847946     0.15800
H1516       H  0.52803104  0.45270287  0.12884776     0.16400
C1517       C  0.45690737  0.39207470  0.02631029     0.06000
C1518       C  0.44069556  0.41003310  0.03056229    -0.28400
H1519       H  0.45513220  0.38052482  0.01020115     0.15800
H1520       H  0.44307393  0.42168613  0.04654062     0.16400
C1521       C  0.64078698  0.33007312  0.22191858    -0.13200
C1522       C  0.65338466  0.32184290  0.20250898    -0.28400
H1523       H  0.62442029  0.32052058  0.22781227     0.15800
H1524       H  0.66923455  0.33210587  0.19635996     0.16400
C1525       C  0.56811233  0.32194696  0.09825083    -0.13200
C1526       C  0.57117917  0.31386743  0.12123023    -0.28400
H1527       H  0.58064543  0.31649528  0.08392339     0.15800
H1528       H  0.55797714  0.31902376  0.13507284     0.16400
C1529       C  0.32367979  0.30567629  0.14002909    -0.13200
C1530       C  0.33071172  0.28661100  0.12618860    -0.28400
H1531       H  0.33396906  0.31021336  0.15646236     0.15800
H1532       H  0.32119024  0.28232415  0.10924902     0.16400
C1533       C  0.44664200  0.31351027  0.13321961    -0.13200
C1534       C  0.45286248  0.31888416  0.11013436    -0.28400
H1535       H  0.45434438  0.32382693  0.14841205     0.15800
H1536       H  0.44547453  0.30779272  0.09531375     0.16400
C1537       C  0.46491380  0.18852122  0.12348529    -0.13200
C1538       C  0.44591819  0.19668719  0.11025684    -0.28400
H1539       H  0.46714086  0.19476958  0.14222929     0.15800
H1540       H  0.44282301  0.19015671  0.09174583     0.16400
C1541       C  0.57952629  0.19085135  0.12409535    -0.13200
C1542       C  0.58579821  0.19869787  0.14661399    -0.28400
H1543       H  0.58640782  0.20071752  0.10835934     0.15800
H1544       H  0.57862542  0.18970370  0.16271052     0.16400
C1545       C  0.57992118  0.10485318  0.03617318    -0.13200
C1546       C  0.56353808  0.12310775  0.03630448    -0.28400
H1547       H  0.57956870  0.09141987  0.05074971     0.15800
H1548       H  0.56312471  0.13633060  0.02155888     0.16400
C1549       C  0.61543327  0.04838810  0.91936389    -0.13200
C1550       C  0.63246575  0.04414675  0.93654388    -0.28400
H1551       H  0.60371889  0.06432241  0.92115152     0.15800
H1552       H  0.64399088  0.02804001  0.93546587     0.16400
C1553       C  0.72530232  0.15437934  0.81795489    -0.13200
C1554       C  0.72942244  0.13808769  0.80002219    -0.28400
H1555       H  0.70911749  0.16583110  0.81710596     0.15800
H1556       H  0.74572098  0.12681381  0.80017219     0.16400
C1557       C  0.82874781  0.22473489  0.85678742    -0.13200
C1558       C  0.81113363  0.22633268  0.87378309    -0.28400
H1559       H  0.82834089  0.20958129  0.84386312     0.15800
H1560       H  0.81109208  0.24140550  0.88678048     0.16400
C1561       C  0.70898271  0.13426938  0.93382663    -0.13200
C1562       C  0.68963432  0.14530365  0.94413334    -0.28400
H1563       H  0.71198797  0.11491423  0.93722020     0.15800
H1564       H  0.68549783  0.16433292  0.94029356     0.16400
C1565       C  0.93967328  0.11301675  0.96497540    -0.13200
C1566       C  0.95485999  0.13206674  0.96865486    -0.28400
H1567       H  0.94306403  0.10053914  0.94984844     0.15800
H1568       H  0.95226019  0.14447119  0.98397160     0.16400
C1569       C  0.89209854  0.04106319  0.05186872    -0.13200
C1570       C  0.90972884  0.04583285  0.06841666    -0.28400
H1571       H  0.88156719  0.02420277  0.05282994     0.15800
H1572       H  0.92063898  0.06240397  0.06670382     0.16400
C1573       C  0.82240762  0.13256033  0.92993798    -0.13200
C1574       C  0.82616877  0.10903789  0.93604227    -0.28400
H1575       H  0.83209564  0.14691311  0.93984578     0.15800
H1576       H  0.81592256  0.09440511  0.92722098     0.16400
C1577       C  0.79885112  0.14419041  0.17258544    -0.13200
C1578       C  0.79751889  0.12447665  0.18716422    -0.28400
H1579       H  0.81320315  0.15766102  0.17571703     0.15800
H1580       H  0.78330268  0.11080729  0.18442365     0.16400
C1581       C  0.70517907  0.21497472  0.13842974    -0.13200
C1582       C  0.69526687  0.23315294  0.12522426    -0.28400
H1583       H  0.69734854  0.21037504  0.15602787     0.15800
H1584       H  0.70212858  0.23715371  0.10709206     0.16400
C1585       C  0.81329347  0.15091902  0.05680976    -0.13200
C1586       C  0.81699174  0.12776301  0.04922461    -0.28400
H1587       H  0.82476062  0.16579452  0.05041002     0.15800
H1588       H  0.80473174  0.11341252  0.05543571     0.16400
C1589       C  0.69415263  0.10936240  0.05420367    -0.13200
C1590       C  0.69723935  0.13236652  0.06249989    -0.28400
H1591       H  0.70536423  0.09454732  0.06111345     0.15800
H1592       H  0.68650887  0.14703742  0.05454559     0.16400
C1593       C  0.65338190  0.81799884  0.77749541    -0.13200
C1594       C  0.63889613  0.82907308  0.76109401    -0.28400
H1595       H  0.67131878  0.82567272  0.78147617     0.15800
H1596       H  0.62053920  0.82218425  0.75770214     0.16400
C1597       C  0.54739523  0.94163595  0.89052164    -0.13200
C1598       C  0.54359041  0.95784938  0.87251048    -0.28400
H1599       H  0.56288662  0.94412862  0.90276285     0.15800
H1600       H  0.52786065  0.95594426  0.86049220     0.16400
C1601       C  0.57347051  0.82691000  0.88592233    -0.13200
C1602       C  0.58018130  0.82435532  0.86248778    -0.28400
H1603       H  0.58158001  0.81561026  0.90004679     0.15800
H1604       H  0.57095557  0.83498715  0.84850154     0.16400
C1605       C  0.56658267  0.70372793  0.86387090    -0.13200
C1606       C  0.57521377  0.70678649  0.84110831    -0.28400
H1607       H  0.57152125  0.71699446  0.87790985     0.15800
H1608       H  0.56999917  0.69436396  0.82645751     0.16400
C1609       C  0.45973000  0.81285856  0.84414997    -0.13200
C1610       C  0.45607158  0.83585856  0.85225696    -0.28400
H1611       H  0.47812961  0.80548604  0.84379712     0.15800
H1612       H  0.43787018  0.84369877  0.85193398     0.16400
C1613       C  0.44341052  0.70768236  0.89059606    -0.13200
C1614       C  0.45087294  0.68668847  0.88015107    -0.28400
H1615       H  0.45251399  0.71459970  0.90689080     0.15800
H1616       H  0.44231550  0.68074767  0.86317996     0.16400
C1617       C  0.32719201  0.81470136  0.85186043    -0.13200
C1618       C  0.33534374  0.79573562  0.86517270    -0.28400
H1619       H  0.33662004  0.81956042  0.83514343     0.15800
H1620       H  0.32676285  0.79139124  0.88247611     0.16400
C1621       C  0.21216237  0.87245143  0.92715918    -0.13200
C1622       C  0.20812822  0.89480505  0.93676303    -0.28400
H1623       H  0.20157078  0.85670213  0.93298110     0.15800
H1624       H  0.21970705  0.90996416  0.93115426     0.16400
C1625       C  0.20795232  0.88080790  0.05961814    -0.13200
C1626       C  0.20453658  0.90457569  0.05413917    -0.28400
H1627       H  0.19873999  0.86693266  0.04864868     0.15800
H1628       H  0.21407577  0.91884841  0.06424766     0.16400
C1629       C  0.44784210  0.89584425  0.96411306    -0.13200
C1630       C  0.46122032  0.87542081  0.96162912    -0.28400
H1631       H  0.45210921  0.91172892  0.95300186     0.15800
H1632       H  0.45709123  0.85920213  0.97226958     0.16400
C1633       C  0.33413519  0.88821548  0.94350922    -0.13200
C1634       C  0.32397312  0.90302645  0.92682405    -0.28400
H1635       H  0.33018419  0.86870136  0.94279785     0.15800
H1636       H  0.32821619  0.92245336  0.92645650     0.16400
C1637       C  0.32813182  0.88011286  0.05614648    -0.13200
C1638       C  0.32303889  0.85711458  0.06313621    -0.28400
H1639       H  0.31669842  0.89502411  0.06256849     0.15800
H1640       H  0.33366671  0.84179535  0.05633899     0.16400
C1641       C  0.14072928  0.99240235  0.93129390    -0.13200
C1642       C  0.12856744  0.97352924  0.94135333    -0.28400
H1643       H  0.15881501  0.99743055  0.93785392     0.15800
H1644       H  0.11101366  0.96807905  0.93370010     0.16400
C1645       C  0.05061954  0.08303570  0.90410206    -0.13200
C1646       C  0.04822071  0.06599911  0.88651842    -0.28400
H1647       H  0.06671072  0.08290161  0.91580043     0.15800
H1648       H  0.03192039  0.06542776  0.87513899     0.16400
C1649       C  0.13018971  0.82572932  0.72841925    -0.13200
C1650       C  0.14256115  0.81490108  0.71021128    -0.28400
H1651       H  0.11246931  0.81867720  0.73389394     0.15800
H1652       H  0.15984401  0.82275660  0.70439892     0.16400
C1653       C  0.21544579  0.87301353  0.80287077    -0.13200
C1654       C  0.23343069  0.88788985  0.81085242    -0.28400
H1655       H  0.21232535  0.85569174  0.81206752     0.15800
H1656       H  0.23587691  0.90587944  0.80281358     0.16400
C1657       C  0.13801092  0.95324954  0.80768986    -0.13200
C1658       C  0.11667711  0.95732489  0.81896499    -0.28400
H1659       H  0.15302093  0.96607997  0.81037381     0.15800
H1660       H  0.10119505  0.94516379  0.81597981     0.16400
C1661       C  0.03638626  0.94345448  0.61475124    -0.13200
C1662       C  0.05573389  0.95246019  0.60267255    -0.28400
H1663       H  0.03129135  0.95115006  0.63232022     0.15800
H1664       H  0.06112834  0.94391673  0.58557424     0.16400
C1665       C  0.13299832  0.93901181  0.69394630    -0.13200
C1666       C  0.14635723  0.94984771  0.67645943    -0.28400
H1667       H  0.11347272  0.94245377  0.69454123     0.15800
H1668       H  0.16581151  0.94640978  0.67502505     0.16400
C1669       C  0.14638381  0.19757776  0.78168782    -0.13200
C1670       C  0.12817210  0.21398855  0.78133771    -0.28400
H1671       H  0.16037725  0.19898037  0.79576050     0.15800
H1672       H  0.11435946  0.21341111  0.76706084     0.16400
C1673       C  0.15206489  0.08400148  0.80159830    -0.13200
C1674       C  0.12989059  0.07672235  0.80922181    -0.28400
H1675       H  0.16852200  0.07678215  0.80998631     0.15800
H1676       H  0.11376542  0.08329714  0.79968473     0.16400
C1677       C  0.11498930  0.08042647  0.69091180    -0.13200
C1678       C  0.12835359  0.06186283  0.68180857    -0.28400
H1679       H  0.09585156  0.08236498  0.68609791     0.15800
H1680       H  0.14768060  0.06100557  0.68630985     0.16400
C1681       C  0.57584157  0.63458711  0.97007445    -0.13200
C1682       C  0.56972865  0.62305057  0.94916607    -0.28400
H1683       H  0.56585935  0.65070397  0.97596061     0.15800
H1684       H  0.58056021  0.60754205  0.94312037     0.16400
C1685       C  0.62667552  0.54929303  0.04978831    -0.13200
C1686       C  0.60836018  0.55016838  0.06605419    -0.28400
H1687       H  0.63975621  0.53440059  0.05026291     0.15800
H1688       H  0.59510377  0.56488343  0.06483023     0.16400
C1689       C  0.79244653  0.66250834  0.81879009    -0.13200
C1690       C  0.79059037  0.64374592  0.80293490    -0.28400
H1691       H  0.80673817  0.67613103  0.81633994     0.15800
H1692       H  0.77609880  0.63025465  0.80474707     0.16400
C1693       C  0.70339564  0.72855307  0.87068242    -0.13200
C1694       C  0.68972232  0.72637681  0.85037943    -0.28400
H1695       H  0.70034917  0.74343702  0.88353133     0.15800
H1696       H  0.69348374  0.71168036  0.83748024     0.16400
C1697       C  0.70237799  0.62751260  0.93049464    -0.13200
C1698       C  0.69186350  0.63933292  0.94929344    -0.28400
H1699       H  0.69830380  0.60838130  0.92680763     0.15800
H1700       H  0.69575351  0.65870303  0.95191636     0.16400
C1701       C  0.89803090  0.55139572  0.94281542    -0.13200
C1702       C  0.88325055  0.53557130  0.93094153    -0.28400
H1703       H  0.91632717  0.55464198  0.93590068     0.15800
H1704       H  0.86462009  0.53270931  0.93706778     0.16400
C1705       C  0.82444748  0.63611879  0.93744321    -0.13200
C1706       C  0.81729991  0.65939669  0.93410897    -0.28400
H1707       H  0.81531887  0.62152414  0.92733227     0.15800
H1708       H  0.82548580  0.67422511  0.94463724     0.16400
C1709       C  0.72133095  0.66147092  0.17821485    -0.13200
C1710       C  0.72165511  0.64309601  0.19443808    -0.28400
H1711       H  0.70714260  0.67527535  0.17950092     0.15800
H1712       H  0.73606949  0.62949323  0.19391109     0.16400
C1713       C  0.70003186  0.66092027  0.06801378    -0.13200
C1714       C  0.69210006  0.63796008  0.06377927    -0.28400
H1715       H  0.69196724  0.67628207  0.05841975     0.15800
H1716       H  0.70125105  0.62275639  0.07265203     0.16400
C1717       C  0.81259342  0.63868756  0.05734746    -0.13200
C1718       C  0.82348360  0.61667230  0.05531825    -0.28400
H1719       H  0.81591754  0.65226203  0.04329162     0.15800
H1720       H  0.82013798  0.60242014  0.06864906     0.16400
C1721       C  0.19261314  0.22080477  0.36012488    -0.13200
C1722       C  0.17624933  0.21711031  0.34215527    -0.28400
H1723       H  0.19073725  0.23619759  0.37261170     0.15800
H1724       H  0.17865082  0.20197518  0.32943358     0.16400
C1725       C  0.05874093  0.14132880  0.46564164    -0.13200
C1726       C  0.07149053  0.12029459  0.46628238    -0.28400
H1727       H  0.06442223  0.15688981  0.47671988     0.15800
H1728       H  0.06585508  0.10515121  0.45458582     0.16400
C1729       C  0.13188082  0.04806739  0.54861963    -0.13200
C1730       C  0.11678024  0.05075617  0.56774710    -0.28400
H1731       H  0.14307267  0.03177403  0.54689715     0.15800
H1732       H  0.10521451  0.06685526  0.56875934     0.16400
C1733       C  0.19757410  0.12274166  0.42063597    -0.13200
C1734       C  0.18654001  0.13501378  0.43884585    -0.28400
H1735       H  0.19466412  0.10321218  0.41819011     0.15800
H1736       H  0.18925654  0.15469847  0.44024382     0.16400
C1737       C  0.22592049  0.14604878  0.67639186    -0.13200
C1738       C  0.20491789  0.15703317  0.68277159    -0.28400
H1739       H  0.23242074  0.13026610  0.68649254     0.15800
H1740       H  0.19825748  0.17231915  0.67201516     0.16400
C1741       C  0.19489325  0.13622748  0.55249411    -0.13200
C1742       C  0.19892019  0.15900074  0.56106092    -0.28400
H1743       H  0.20711919  0.12159180  0.55800582     0.15800
H1744       H  0.18776043  0.17423119  0.55503220     0.16400
C1745       C  0.32214713  0.14278992  0.54127618    -0.13200
C1746       C  0.31359897  0.13028480  0.56057675    -0.28400
H1747       H  0.31692328  0.16184483  0.53910753     0.15800
H1748       H  0.31889963  0.11138202  0.56351822     0.16400
C1749       C  0.32068768  0.13978994  0.42535551    -0.13200
C1750       C  0.31160963  0.16206989  0.42055438    -0.28400
H1751       H  0.31240218  0.12378624  0.41678465     0.15800
H1752       H  0.31888268  0.17822519  0.42969747     0.16400
C1753       C  0.38910117  0.05581480  0.43904136    -0.13200
C1754       C  0.40607643  0.05771542  0.42145773    -0.28400
H1755       H  0.37738506  0.03975739  0.43987511     0.15800
H1756       H  0.41801791  0.07364572  0.42128537     0.16400
C1757       C  0.29562307  0.87683534  0.19504887    -0.13200
C1758       C  0.29755334  0.85819113  0.17901619    -0.28400
H1759       H  0.28102346  0.89010576  0.19322268     0.15800
H1760       H  0.31211200  0.84494763  0.18152294     0.16400
C1761       C  0.38329643  0.94799904  0.29465657    -0.13200
C1762       C  0.37184953  0.95849704  0.31372476    -0.28400
H1763       H  0.40222054  0.95282458  0.29113328     0.15800
H1764       H  0.35324703  0.95336471  0.31825496     0.16400
C1765       C  0.40779014  0.95680801  0.05704371    -0.13200
C1766       C  0.39452698  0.97538062  0.06600421    -0.28400
H1767       H  0.42452026  0.95140396  0.06629255     0.15800
H1768       H  0.37723561  0.98028527  0.05755964     0.16400
C1769       C  0.47156551  0.06037064  0.10969120    -0.13200
C1770       C  0.48998367  0.06953379  0.12333559    -0.28400
H1771       H  0.46677567  0.06936592  0.09268523     0.15800
H1772       H  0.49463302  0.06121566  0.14071061     0.16400
C1773       C  0.38463450  0.93533247  0.18271701    -0.13200
C1774       C  0.40762678  0.94329241  0.17915300    -0.28400
H1775       H  0.36982533  0.94393475  0.17270665     0.15800
H1776       H  0.42268376  0.93567490  0.18957212     0.16400
C1777       C  0.36069789  0.18728905  0.20233004    -0.13200
C1778       C  0.37937663  0.20307728  0.20530007    -0.28400
H1779       H  0.34899742  0.18890173  0.18633858     0.15800
H1780       H  0.39104837  0.20211788  0.22134790     0.16400
C1781       C  0.28535864  0.15638848  0.30596982    -0.13200
C1782       C  0.28422015  0.13714831  0.29062845    -0.28400
H1783       H  0.29932010  0.17030615  0.30324460     0.15800
H1784       H  0.27009297  0.12331001  0.29270284     0.16400
C1785       C  0.36143996  0.06924507  0.18584978    -0.13200
C1786       C  0.38431691  0.06043060  0.18513686    -0.28400
H1787       H  0.34768178  0.06299832  0.17289360     0.15800
H1788       H  0.39744856  0.06636791  0.19890558     0.16400
C1789       C  0.37735525  0.07808272  0.30173513    -0.13200
C1790       C  0.40076651  0.07174101  0.30543639    -0.28400
H1791       H  0.36314157  0.06914379  0.31227523     0.15800
H1792       H  0.41525015  0.07965355  0.29450012     0.16400
C1793       C  0.64071548  0.20974730  0.71592616    -0.13200
C1794       C  0.66010043  0.19497151  0.71323984    -0.28400
H1795       H  0.62796289  0.20692273  0.73079123     0.15800
H1796       H  0.67294364  0.19847294  0.69858601     0.16400
C1797       C  0.56993370  0.31750420  0.64408854    -0.13200
C1798       C  0.56110332  0.32030276  0.62134520    -0.28400
H1799       H  0.56454856  0.32984472  0.65868586     0.15800
H1800       H  0.56605522  0.30718286  0.60724769     0.16400
C1801       C  0.54090472  0.08574267  0.59695858    -0.13200
C1802       C  0.54153807  0.07001233  0.61573504    -0.28400
H1803       H  0.55420181  0.08386921  0.58238510     0.15800
H1804       H  0.52813009  0.07117631  0.63024052     0.16400
C1805       C  0.44565120  0.13020977  0.53803745    -0.13200
C1806       C  0.43852126  0.14234270  0.51792693    -0.28400
H1807       H  0.43549481  0.11406409  0.54364226     0.15800
H1808       H  0.44793221  0.15895077  0.51241498     0.16400
C1809       C  0.56344867  0.20017341  0.60190715    -0.13200
C1810       C  0.57323273  0.20096910  0.62449582    -0.28400
H1811       H  0.56947255  0.21288201  0.58797159     0.15800
H1812       H  0.56609645  0.18878356  0.63840129     0.16400
C1813       C  0.32598326  0.22826925  0.64472372    -0.13200
C1814       C  0.30945787  0.23009481  0.62662002    -0.28400
H1815       H  0.32507411  0.21275000  0.65704487     0.15800
H1816       H  0.30992306  0.24561600  0.61429405     0.16400
C1817       C  0.43956557  0.21655371  0.62475886    -0.13200
C1818       C  0.45118160  0.19812744  0.63608175    -0.28400
H1819       H  0.44196813  0.21880780  0.60521243     0.15800
H1820       H  0.44845329  0.19483588  0.65541119     0.16400
C1821       C  0.44018850  0.32826528  0.62804404    -0.13200
C1822       C  0.44513175  0.33495053  0.60496656    -0.28400
H1823       H  0.45190188  0.33490544  0.64272734     0.15800
H1824       H  0.43421818  0.32803626  0.58982964     0.16400
C1825       C  0.98875710  0.94339325  0.10243070    -0.13200
C1826       C  0.98852825  0.95749933  0.12266055    -0.28400
H1827       H  0.97567771  0.94706126  0.08793717     0.15800
H1828       H  0.00121806  0.95399518  0.13751117     0.16400
C1829       C  0.07565283  0.89033312  0.03207604    -0.13200
C1830       C  0.09285074  0.90774195  0.03505628    -0.28400
H1831       H  0.07556562  0.87877177  0.01589373     0.15800
H1832       H  0.09208203  0.91965512  0.05097614     0.16400
C1833       C  0.82991704  0.73785568  0.12581510    -0.13200
C1834       C  0.82148651  0.71847956  0.13828332    -0.28400
H1835       H  0.82059765  0.74387126  0.10935972     0.15800
H1836       H  0.83163114  0.71196743  0.15406022     0.16400
C1837       C  0.88473807  0.82173759  0.20361315    -0.13200
C1838       C  0.86662884  0.83809478  0.20098185    -0.28400
H1839       H  0.89711896  0.82298798  0.21912777     0.15800
H1840       H  0.85389984  0.83618725  0.18580602     0.16400
C1841       C  0.94972281  0.81753175  0.10519776    -0.13200
C1842       C  0.96716721  0.82941018  0.11791834    -0.28400
H1843       H  0.94815643  0.81978355  0.08556630     0.15800
H1844       H  0.96779227  0.82742392  0.13764782     0.16400
C1845       C  0.04502257  0.57527266  0.10749652    -0.13200
C1846       C  0.04120804  0.55791877  0.12441300    -0.28400
H1847       H  0.06050046  0.57346442  0.09526192     0.15800
H1848       H  0.02549484  0.55890393  0.13639332     0.16400
C1849       C  0.95018860  0.61678664  0.04552229    -0.13200
C1850       C  0.94143528  0.62954971  0.02649564    -0.28400
H1851       H  0.94036459  0.60065858  0.05172870     0.15800
H1852       H  0.95038424  0.64637400  0.02083916     0.16400
C1853       C  0.95462740  0.69825107  0.11869982    -0.13200
C1854       C  0.94633043  0.70411463  0.14103554    -0.28400
H1855       H  0.94893122  0.70926203  0.10322155     0.15800
H1856       H  0.95243730  0.69415458  0.15702801     0.16400
C1857       C  0.19435308  0.78886110  0.14327916    -0.13200
C1858       C  0.20947946  0.78693549  0.12413251    -0.28400
H1859       H  0.19746183  0.80335003  0.15663392     0.15800
H1860       H  0.20721540  0.77225082  0.11087454     0.16400
C1861       C  0.13676095  0.68674845  0.22520385    -0.13200
C1862       C  0.15068363  0.69684381  0.20775196    -0.28400
H1863       H  0.11897812  0.69438382  0.22946662     0.15800
H1864       H  0.16792757  0.68829134  0.20298040     0.16400
C1865       C  0.08332725  0.81601935  0.14273357    -0.13200
C1866       C  0.07762979  0.82107358  0.11938361    -0.28400
H1867       H  0.07610420  0.82709459  0.15752764     0.15800
H1868       H  0.08407786  0.80899086  0.10499734     0.16400
C1869       C  0.07218640  0.69984811  0.12769319    -0.13200
C1870       C  0.06837054  0.69120340  0.10496338    -0.28400
H1871       H  0.05983379  0.69433218  0.14215785     0.15800
H1872       H  0.07979789  0.69707503  0.08992917     0.16400
C1873       C  0.32320223  0.72770707  0.37394406    -0.13200
C1874       C  0.31803542  0.70755679  0.36063808    -0.28400
H1875       H  0.31293839  0.73169565  0.39040511     0.15800
H1876       H  0.32915363  0.70332492  0.34479037     0.16400
C1877       C  0.36512382  0.82950662  0.29088419    -0.13200
C1878       C  0.38244415  0.81199766  0.29120361    -0.28400
H1879       H  0.35189942  0.83001751  0.30561304     0.15800
H1880       H  0.39583552  0.81091289  0.27668708     0.16400
C1881       C  0.46964722  0.94540725  0.39015964    -0.13200
C1882       C  0.47196571  0.96101428  0.37142427    -0.28400
H1883       H  0.45500548  0.94804247  0.40324272     0.15800
H1884       H  0.48682844  0.95901402  0.35850582     0.16400
C1885       C  0.56247391  0.89864803  0.45742141    -0.13200
C1886       C  0.57886381  0.91645808  0.45308568    -0.28400
H1887       H  0.56418091  0.88725993  0.47354586     0.15800
H1888       H  0.57657543  0.92798548  0.43711839     0.16400
C1889       C  0.45195111  0.82368929  0.40347353    -0.13200
C1890       C  0.42958978  0.82737267  0.39397904    -0.28400
H1891       H  0.45777324  0.80525325  0.40801804     0.15800
H1892       H  0.42309595  0.84584786  0.39071357     0.16400
C1893       C  0.69139182  0.79017110  0.36248925    -0.13200
C1894       C  0.70069686  0.80850457  0.34904786    -0.28400
H1895       H  0.69993375  0.78518497  0.37968434     0.15800
H1896       H  0.69136989  0.81377698  0.33232761     0.16400
C1897       C  0.63293278  0.71389923  0.28046212    -0.13200
C1898       C  0.64892247  0.69542525  0.28311936    -0.28400
H1899       H  0.62169957  0.71519994  0.26415218     0.15800
H1900       H  0.66032376  0.69495992  0.29939594     0.16400
C1901       C  0.57694231  0.82322956  0.36705428    -0.13200
C1902       C  0.56001941  0.83628909  0.35493998    -0.28400
H1903       H  0.57885087  0.82583355  0.38665551     0.15800
H1904       H  0.55760217  0.83421711  0.33536220     0.16400
C1905       C  0.55163121  0.58804710  0.39642252    -0.13200
C1906       C  0.54899570  0.57031771  0.37955617    -0.28400
H1907       H  0.56795948  0.58842883  0.40779516     0.15800
H1908       H  0.53248927  0.56909052  0.36853822     0.16400
C1909       C  0.45553292  0.62458399  0.46527911    -0.13200
C1910       C  0.44643582  0.63851927  0.48337215    -0.28400
H1911       H  0.44689326  0.60711477  0.46103474     0.15800
H1912       H  0.45439034  0.65635590  0.48738271     0.16400
C1913       C  0.56400887  0.70153274  0.39554428    -0.13200
C1914       C  0.56719036  0.70862574  0.37227944    -0.28400
H1915       H  0.57547668  0.70887733  0.41006197     0.15800
H1916       H  0.55468432  0.70195333  0.35828640     0.16400
C1917       C  0.45062343  0.69382456  0.37044712    -0.13200
C1918       C  0.43837728  0.71077686  0.38335239    -0.28400
H1919       H  0.44771545  0.69189757  0.35091535     0.15800
H1920       H  0.44101426  0.71167916  0.40300763     0.16400
C1921       C  0.36435714  0.69562876  0.78380074    -0.13200
C1922       C  0.38397982  0.71039494  0.78221471    -0.28400
H1923       H  0.35117671  0.69873368  0.79826250     0.15800
H1924       H  0.39714855  0.70788910  0.76765427     0.16400
C1925       C  0.29657750  0.65250828  0.69119685    -0.13200
C1926       C  0.27717136  0.63953420  0.68312810    -0.28400
H1927       H  0.30192417  0.66899258  0.68151268     0.15800
H1928       H  0.27212395  0.62248977  0.69194479     0.16400
C1929       C  0.40705477  0.55806675  0.57743848    -0.13200
C1930       C  0.38926889  0.55645621  0.56053908    -0.28400
H1931       H  0.41926996  0.57380529  0.57735426     0.15800
H1932       H  0.37740840  0.54048876  0.55969917     0.16400
C1933       C  0.47055853  0.45906041  0.60877227    -0.13200
C1934       C  0.48730793  0.44680646  0.62184264    -0.28400
H1935       H  0.46561839  0.45247889  0.59064727     0.15800
H1936       H  0.49180757  0.45256821  0.64033553     0.16400
C1937       C  0.40727892  0.57086304  0.68956350    -0.13200
C1938       C  0.38371281  0.57623917  0.69394319    -0.28400
H1939       H  0.42189864  0.58109376  0.69838006     0.15800
H1940       H  0.36953955  0.56509849  0.68543849     0.16400
C1941       C  0.39951511  0.47608952  0.92549789    -0.13200
C1942       C  0.38352907  0.47982369  0.94370762    -0.28400
H1943       H  0.41092768  0.45985116  0.92581553     0.15800
H1944       H  0.37251048  0.49630806  0.94424427     0.16400
C1945       C  0.46623975  0.57063053  0.88798551    -0.13200
C1946       C  0.48522243  0.57867010  0.87471905    -0.28400
H1947       H  0.46124281  0.58032839  0.90458835     0.15800
H1948       H  0.48966674  0.56985424  0.85748196     0.16400
C1949       C  0.38340693  0.57478893  0.81212921    -0.13200
C1950       C  0.36017019  0.57989360  0.80596252    -0.28400
H1951       H  0.39816092  0.58373507  0.80236739     0.15800
H1952       H  0.34506749  0.57040259  0.81458220     0.16400
C1953       C  0.35620363  0.33683714  0.71145214    -0.13200
C1954       C  0.37416424  0.32035408  0.71436218    -0.28400
H1955       H  0.34395195  0.33508939  0.69587974     0.15800
H1956       H  0.38629732  0.32140313  0.73006034     0.16400
C1957       C  0.29022731  0.36825399  0.81723056    -0.13200
C1958       C  0.28674682  0.38647444  0.80116200    -0.28400
H1959       H  0.30556714  0.35592494  0.81475619     0.15800
H1960       H  0.27124997  0.39869323  0.80298352     0.16400
C1961       C  0.36211279  0.45245867  0.69020646    -0.13200
C1962       C  0.38589376  0.45549449  0.68483588    -0.28400
H1963       H  0.34819954  0.46305217  0.68088152     0.15800
H1964       H  0.39949566  0.44524178  0.69500396     0.16400
C1965       C  0.37631292  0.45255379  0.80660670    -0.13200
C1966       C  0.39972399  0.45883436  0.81087689    -0.28400
H1967       H  0.36192898  0.46237155  0.81608086     0.15800
H1968       H  0.41445849  0.44990487  0.80111623     0.16400
C1969       C  0.93425002  0.39292499  0.46087100    -0.13200
C1970       C  0.94799238  0.37262506  0.45926948    -0.28400
H1971       H  0.93731185  0.40772055  0.44802367     0.15800
H1972       H  0.94588971  0.35782396  0.47226232     0.16400
C1973       C  0.89529381  0.46880014  0.55282139    -0.13200
C1974       C  0.88011752  0.48363950  0.56510691    -0.28400
H1975       H  0.91433856  0.46779543  0.55840675     0.15800
H1976       H  0.86094944  0.48460553  0.55998563     0.16400
C1977       C  0.78515664  0.37241944  0.67891607    -0.13200
C1978       C  0.80321466  0.35975719  0.68972881    -0.28400
H1979       H  0.77976576  0.39010238  0.68626427     0.15800
H1980       H  0.80934443  0.34271068  0.68150726     0.16400
C1981       C  0.70464918  0.29233171  0.62666116    -0.13200
C1982       C  0.68615157  0.29813206  0.64160550    -0.28400
H1983       H  0.70533612  0.27451461  0.61781783     0.15800
H1984       H  0.68634255  0.31576269  0.65090434     0.16400
C1985       C  0.81963113  0.34907795  0.55981305    -0.13200
C1986       C  0.83859261  0.36426725  0.56376795    -0.28400
H1987       H  0.81706597  0.34045427  0.54208407     0.15800
H1988       H  0.84123526  0.37214023  0.58184739     0.16400
C1989       C  0.58181729  0.40930046  0.54077933    -0.13200
C1990       C  0.56282039  0.39431218  0.53601825    -0.28400
H1991       H  0.58234243  0.41944215  0.55789551     0.15800
H1992       H  0.56159603  0.38464127  0.51867948     0.16400
C1993       C  0.62048142  0.47521017  0.44556102    -0.13200
C1994       C  0.63427999  0.49249144  0.43493377    -0.28400
H1995       H  0.60241424  0.47124144  0.43818814     0.15800
H1996       H  0.65271308  0.49610074  0.44148233     0.16400
C1997       C  0.70033955  0.40793707  0.55308349    -0.13200
C1998       C  0.70785084  0.38459798  0.55531080    -0.28400
H1999       H  0.70745027  0.42224660  0.56497324     0.15800
H2000       H  0.70085817  0.37092808  0.54257518     0.16400
C2001       C  0.71936670  0.36848026  0.31945433    -0.13200
C2002       C  0.72234397  0.38439703  0.30098704    -0.28400
H2003       H  0.70295519  0.35726424  0.31992634     0.15800
H2004       H  0.73885239  0.39538878  0.29979898     0.16400
C2005       C  0.82081130  0.29186858  0.35598819    -0.13200
C2006       C  0.80807469  0.29537312  0.37670519    -0.28400
H2007       H  0.81698448  0.30342605  0.34034916     0.15800
H2008       H  0.81104584  0.28354038  0.39230534     0.16400
C2009       C  0.70421617  0.38968835  0.42944691    -0.13200
C2010       C  0.68803049  0.37761717  0.44336034    -0.28400
H2011       H  0.70427576  0.40958668  0.42971840     0.15800
H2012       H  0.68700842  0.35776662  0.44288899     0.16400
C2013       C  0.81821659  0.40064123  0.42814532    -0.13200
C2014       C  0.81411547  0.40691212  0.45161886    -0.28400
H2015       H  0.83651035  0.40194672  0.42064401     0.15800
H2016       H  0.79557319  0.40676247  0.45862266     0.16400
loop_ 
_geom_bond_atom_site_label_1 
_geom_bond_atom_site_label_2 
_geom_bond_distance 
_geom_bond_site_symmetry_2 
_ccdc_geom_bond_type 
O1            C4   1.273       .  A
O1           Cd6   2.515       .  S
C2           O11   1.264       .  A
C2            O7   1.272       .  A
C2         C2013   1.479       .  S
O3            C9   1.276       .  A
O3           Cd6   2.507       .  S
C4           O12   1.266       .  A
C4         C2001   1.479       .  S
C5           O10   1.272       .  A
C5            O8   1.266       .  A
C5         C2006   1.487       .  S
Cd6          O13   2.393       .  S
Cd6          O12   2.423       .  S
Cd6          O11   2.436       .  S
Cd6           O7   2.507       .  S
Cd6          O10   2.515       .  S
Cd6           O8   2.447       .  S
C9           O13   1.266       .  A
C9         C2009   1.474       .  S
O14          C17   1.271       .  A
O14         Cd19   2.510       .  S
C15          O24   1.266       .  A
C15          O20   1.272       .  A
C15        C1989   1.475       .  S
O16          C22   1.273       .  A
O16         Cd19   2.530       .  S
C17          O25   1.266       .  A
C17        C2010   1.482       .  S
C18          O23   1.273       .  A
C18          O21   1.264       .  A
C18        C1993   1.473       .  S
Cd19         O26   2.381       .  S
Cd19         O25   2.410       .  S
Cd19         O24   2.425       .  S
Cd19         O20   2.495       .  S
Cd19         O23   2.508       .  S
Cd19         O21   2.404       .  S
C22          O26   1.265       .  A
C22        C1997   1.485       .  S
O27          C30   1.269       .  A
O27         Cd32   2.487       .  S
C28          O37   1.260       .  A
C28          O33   1.270       .  A
C28        C1998   1.472       .  S
O29          C35   1.266       .  A
O29         Cd32   2.496       .  S
C30          O38   1.268       .  A
C30        C1977   1.483       .  S
C31          O36   1.269       .  A
C31          O34   1.265       .  A
C31        C1981   1.479       .  S
Cd32         O39   2.444       .  S
Cd32         O38   2.459       .  S
Cd32         O37   2.396       .  S
Cd32         O33   2.548       .  S
Cd32         O36   2.504       .  S
Cd32         O34   2.414       .  S
C35          O39   1.265       .  A
C35        C1985   1.477       .  S
O40          C43   1.264       .  A
O40         Cd45   2.503       .  S
C41          O50   1.264       .  A
C41          O46   1.272       .  A
C41        C1969   1.471       .  S
O42          C48   1.268       .  A
O42         Cd45   2.504       .  S
C43          O51   1.260       .  A
C43        C1986   1.475       .  S
C44          O49   1.271       .  A
C44          O47   1.261       .  A
C44        C1973   1.476       .  S
Cd45         O52   2.459       .  S
Cd45         O51   2.462       .  S
Cd45         O50   2.395       .  S
Cd45         O46   2.513       .  S
Cd45         O49   2.521       .  S
Cd45         O47   2.428       .  S
C48          O52   1.262       .  A
C48        C2014   1.479       .  S
O53          C56   1.274       .  A
O53         Cd58   2.501       .  S
C54          O63   1.262       .  A
C54          O59   1.274       .  A
C54        C1965   1.471       .  S
O55          C61   1.273       .  A
O55         Cd58   2.516       .  S
C56          O64   1.266       .  A
C56        C1953   1.475       .  S
C57          O62   1.273       .  A
C57          O60   1.268       .  A
C57        C1958   1.482       .  S
Cd58         O65   2.399       .  S
Cd58         O64   2.408       .  S
Cd58         O63   2.383       .  S
Cd58         O59   2.529       .  S
Cd58         O62   2.494       .  S
Cd58         O60   2.412       .  S
C61          O65   1.266       .  A
C61        C1961   1.484       .  S
O66          C69   1.274       .  A
O66         Cd71   2.518       .  S
C67          O76   1.266       .  A
C67          O72   1.275       .  A
C67        C1941   1.474       .  S
O68          C74   1.273       .  A
O68         Cd71   2.509       .  S
C69          O77   1.264       .  A
C69        C1949   1.471       .  S
C70          O75   1.274       .  A
C70          O73   1.267       .  A
C70        C1945   1.472       .  S
Cd71         O78   2.390       .  S
Cd71         O77   2.384       .  S
Cd71         O76   2.399       .  S
Cd71         O72   2.501       .  S
Cd71         O75   2.483       .  S
Cd71         O73   2.413       .  S
C74          O78   1.267       .  A
C74        C1966   1.484       .  S
O79          C82   1.275       .  A
O79         Cd84   2.489       .  S
C80          O89   1.265       .  A
C80          O85   1.274       .  A
C80        C1962   1.472       .  S
O81          C87   1.274       .  A
O81         Cd84   2.494       .  S
C82          O90   1.267       .  A
C82        C1929   1.473       .  S
C83          O88   1.275       .  A
C83          O86   1.266       .  A
C83        C1937   1.486       .  S
Cd84         O91   2.397       .  S
Cd84         O90   2.403       .  S
Cd84         O89   2.393       .  S
Cd84         O85   2.513       .  S
Cd84         O88   2.521       .  S
Cd84         O86   2.375       .  S
C87          O91   1.266       .  A
C87        C1933   1.471       .  S
O92          C95   1.274       .  A
O92         Cd97   2.497       .  S
C93         O102   1.262       .  A
C93          O98   1.273       .  A
C93        C1938   1.471       .  S
O94         C100   1.272       .  A
O94         Cd97   2.515       .  S
C95         O103   1.267       .  A
C95        C1921   1.475       .  S
C96         O101   1.273       .  A
C96          O99   1.266       .  A
C96        C1925   1.476       .  S
Cd97        O104   2.393       .  S
Cd97        O103   2.411       .  S
Cd97        O102   2.381       .  S
Cd97         O98   2.535       .  S
Cd97        O101   2.509       .  S
Cd97         O99   2.415       .  S
C100        O104   1.266       .  A
C100       C1950   1.483       .  S
O105        C108   1.273       .  A
O105       Cd110   2.490       .  S
C106        O115   1.266       .  A
C106        O111   1.272       .  A
C106       C1917   1.483       .  S
O107        C113   1.272       .  A
O107       Cd110   2.504       .  S
C108        O116   1.266       .  A
C108       C1905   1.470       .  S
C109        O114   1.273       .  A
C109        O112   1.266       .  A
C109       C1913   1.482       .  S
Cd110       O117   2.419       .  S
Cd110       O116   2.401       .  S
Cd110       O115   2.410       .  S
Cd110       O111   2.507       .  S
Cd110       O114   2.510       .  S
Cd110       O112   2.392       .  S
C113        O117   1.265       .  A
C113       C1909   1.475       .  S
O118        C121   1.271       .  A
O118       Cd123   2.499       .  S
C119        O128   1.263       .  A
C119        O124   1.272       .  A
C119       C1914   1.471       .  S
O120        C126   1.273       .  A
O120       Cd123   2.530       .  S
C121        O129   1.269       .  A
C121       C1893   1.485       .  S
C122        O127   1.273       .  A
C122        O125   1.268       .  A
C122       C1897   1.486       .  S
Cd123       O130   2.383       .  S
Cd123       O129   2.437       .  S
Cd123       O128   2.405       .  S
Cd123       O124   2.512       .  S
Cd123       O127   2.511       .  S
Cd123       O125   2.411       .  S
C126        O130   1.263       .  A
C126       C1901   1.471       .  S
O131        C134   1.271       .  A
O131       Cd136   2.487       .  S
C132        O141   1.261       .  A
C132        O137   1.269       .  A
C132       C1902   1.484       .  S
O133        C139   1.268       .  A
O133       Cd136   2.491       .  S
C134        O142   1.265       .  A
C134       C1881   1.472       .  S
C135        O140   1.266       .  A
C135        O138   1.263       .  A
C135       C1889   1.472       .  S
Cd136       O143   2.434       .  S
Cd136       O142   2.418       .  S
Cd136       O141   2.397       .  S
Cd136       O137   2.546       .  S
Cd136       O140   2.488       .  S
Cd136       O138   2.456       .  S
C139        O143   1.267       .  A
C139       C1885   1.480       .  S
O144        C147   1.269       .  A
O144       Cd149   2.502       .  S
C145        O154   1.263       .  A
C145        O150   1.269       .  A
C145       C1890   1.473       .  S
O146        C152   1.274       .  A
O146       Cd149   2.519       .  S
C147        O155   1.267       .  A
C147       C1873   1.483       .  S
C148        O153   1.271       .  A
C148        O151   1.265       .  A
C148       C1878   1.491       .  S
Cd149       O156   2.404       .  S
Cd149       O155   2.438       .  S
Cd149       O154   2.427       .  S
Cd149       O150   2.502       .  S
Cd149       O153   2.534       .  S
Cd149       O151   2.434       .  S
C152        O156   1.265       .  A
C152       C1918   1.475       .  S
O157        C160   1.275       .  A
O157       Cd162   2.516       .  S
C158        O167   1.267       .  A
C158        O163   1.276       .  A
C158       C1857   1.473       .  S
O159        C165   1.274       .  A
O159       Cd162   2.506       .  S
C160        O168   1.264       .  A
C160       C1869   1.472       .  S
C161        O166   1.274       .  A
C161        O164   1.266       .  A
C161       C1862   1.472       .  S
Cd162       O169   2.393       .  S
Cd162       O168   2.380       .  S
Cd162       O167   2.396       .  S
Cd162       O163   2.495       .  S
Cd162       O166   2.499       .  S
Cd162       O164   2.399       .  S
C165        O169   1.268       .  A
C165       C1865   1.483       .  S
O170        C173   1.276       .  A
O170       Cd175   2.510       .  S
C171        O180   1.265       .  A
C171        O176   1.277       .  A
C171       C1853   1.473       .  S
O172        C178   1.274       .  A
O172       Cd175   2.505       .  S
C173        O181   1.267       .  A
C173       C1845   1.476       .  S
C174        O179   1.275       .  A
C174        O177   1.267       .  A
C174       C1849   1.472       .  S
Cd175       O182   2.393       .  S
Cd175       O181   2.400       .  S
Cd175       O180   2.375   1_455  S
Cd175       O176   2.521   1_455  S
Cd175       O179   2.485   1_455  S
Cd175       O177   2.400   1_455  S
C178        O182   1.269       .  A
C178       C1870   1.484       .  S
O183        C186   1.268       .  A
O183       Cd188   2.488       .  S
C184        O193   1.265       .  A
C184        O189   1.268       .  A
C184       C1841   1.481       .  S
O185        C191   1.269       .  A
O185       Cd188   2.494       .  S
C186        O194   1.267       .  A
C186       C1833   1.480       .  S
C187        O192   1.269       .  A
C187        O190   1.265       .  A
C187       C1854   1.485       .  S
Cd188       O195   2.442       .  S
Cd188       O194   2.438       .  S
Cd188       O193   2.424       .  S
Cd188       O189   2.512       .  S
Cd188       O192   2.524       .  S
Cd188       O190   2.415       .  S
C191        O195   1.266       .  A
C191       C1837   1.480       .  S
O196        C199   1.275       .  A
O196       Cd201   2.505       .  S
C197        O206   1.266       .  A
C197        O202   1.276       .  A
C197       C1866   1.471       .  S
O198        C204   1.276       .  A
O198       Cd201   2.508   1_655  S
C199        O207   1.268   1_455  A
C199       C1825   1.478   1_455  S
C200        O205   1.274       .  A
C200        O203   1.270       .  A
C200       C1829   1.482       .  S
Cd201       O208   2.385       .  S
Cd201       O207   2.409   1_455  S
Cd201       O206   2.385       .  S
Cd201       O202   2.503       .  S
Cd201       O205   2.490       .  S
Cd201       O203   2.413       .  S
C204        O208   1.265   1_655  A
C204       C1842   1.473       .  S
O209        C212   1.277       .  A
O209       Cd214   2.513       .  S
C210        O219   1.268       .  A
C210        O215   1.275       .  A
C210       C1813   1.476       .  S
O211        C217   1.276       .  A
O211       Cd214   2.513       .  S
C212        O220   1.266       .  A
C212       C1821   1.471       .  S
C213        O218   1.275       .  A
C213        O216   1.270       .  A
C213       C1954   1.482       .  S
Cd214       O221   2.387       .  S
Cd214       O220   2.374       .  S
Cd214       O219   2.410       .  S
Cd214       O215   2.490       .  S
Cd214       O218   2.488       .  S
Cd214       O216   2.407       .  S
C217        O221   1.266       .  A
C217       C1817   1.474       .  S
O222        C225   1.273       .  A
O222       Cd227   2.497       .  S
C223        O232   1.266       .  A
C223        O228   1.271       .  A
C223       C1818   1.484       .  S
O224        C230   1.273       .  A
O224       Cd227   2.521       .  S
C225        O233   1.266       .  A
C225       C1801   1.473       .  S
C226        O231   1.273       .  A
C226        O229   1.265       .  A
C226       C1805   1.474       .  S
Cd227       O234   2.404       .  S
Cd227       O233   2.407       .  S
Cd227       O232   2.412       .  S
Cd227       O228   2.513       .  S
Cd227       O231   2.512       .  S
Cd227       O229   2.410       .  S
C230        O234   1.266       .  A
C230       C1809   1.486       .  S
O235        C238   1.272       .  A
O235       Cd240   2.530       .  S
C236        O245   1.264       .  A
C236        O241   1.273       .  A
C236       C1982   1.471       .  S
O237        C243   1.271       .  A
O237       Cd240   2.504       .  S
C238        O246   1.263       .  A
C238       C1810   1.473       .  S
C239        O244   1.271       .  A
C239        O242   1.268       .  A
C239       C1793   1.480       .  S
Cd240       O247   2.400       .  S
Cd240       O246   2.398       .  S
Cd240       O245   2.401       .  S
Cd240       O241   2.505       .  S
Cd240       O244   2.490       .  S
Cd240       O242   2.414       .  S
C243        O247   1.266       .  A
C243       C1797   1.479       .  S
O248        C251   1.269       .  A
O248       Cd253   2.487       .  S
C249        O258   1.264       .  A
C249        O254   1.271       .  A
C249       C1798   1.469       .  S
O250        C256   1.271       .  A
O250       Cd253   2.528       .  S
C251        O259   1.268       .  A
C251       C1934   1.479       .  S
C252        O257   1.271       .  A
C252        O255   1.266       .  A
C252       C1990   1.481       .  S
Cd253       O260   2.399       .  S
Cd253       O259   2.419       .  S
Cd253       O258   2.404       .  S
Cd253       O254   2.498       .  S
Cd253       O257   2.500       .  S
Cd253       O255   2.421       .  S
C256        O260   1.265       .  A
C256       C1822   1.485       .  S
O261        C264   1.261       .  A
O261       Cd266   2.384       .  S
C262        O271   1.265       .  A
C262        O267   1.272       .  A
C262       C1777   1.474       .  S
O263        C269   1.270       .  A
O263       Cd266   2.509       .  S
C264        O272   1.272       .  A
C264       C1789   1.469       .  S
C265        O270   1.271       .  A
C265        O268   1.268       .  A
C265       C1782   1.480       .  S
Cd266       O273   2.396       .  S
Cd266       O272   2.526       .  S
Cd266       O271   2.410       .  S
Cd266       O267   2.504       .  S
Cd266       O270   2.488       .  S
Cd266       O268   2.423       .  S
C269        O273   1.265       .  A
C269       C1785   1.480       .  S
O274        C277   1.270   1_545  A
O274       Cd279   2.472       .  S
C275        O284   1.263       .  A
C275        O280   1.271       .  A
C275       C1786   1.470       .  S
O276        C282   1.272       .  A
O276       Cd279   2.523   1_565  S
C277        O285   1.269       .  A
C277       C1766   1.475       .  S
C278        O283   1.272       .  A
C278        O281   1.264       .  A
C278       C1769   1.477       .  S
Cd279       O286   2.407   1_545  S
Cd279       O285   2.411   1_545  S
Cd279       O284   2.397       .  S
Cd279       O280   2.513       .  S
Cd279       O283   2.519       .  S
Cd279       O281   2.419       .  S
C282        O286   1.265       .  A
C282       C1774   1.486       .  S
O287        C290   1.275       .  A
O287       Cd292   2.538       .  S
C288        O297   1.264       .  A
C288        O293   1.277       .  A
C288       C1773   1.472       .  S
O289        C295   1.274       .  A
O289       Cd292   2.501       .  S
C290        O298   1.266       .  A
C290       C1877   1.483       .  S
C291        O296   1.274       .  A
C291        O294   1.265       .  A
C291       C1761   1.477       .  S
Cd292       O299   2.425       .  S
Cd292       O298   2.415       .  S
Cd292       O297   2.380       .  S
Cd292       O293   2.524       .  S
Cd292       O296   2.524       .  S
Cd292       O294   2.405       .  S
C295        O299   1.270       .  A
C295       C1757   1.487       .  S
O300        C303   1.272       .  A
O300       Cd305   2.513       .  S
C301        O310   1.265       .  A
C301        O306   1.272       .  A
C301       C1762   1.486       .  S
O302        C308   1.271       .  A
O302       Cd305   2.508       .  S
C303        O311   1.265       .  A
C303       C1754   1.479       .  S
C304        O309   1.270       .  A
C304        O307   1.267       .  A
C304       C1882   1.478       .  S
Cd305       O312   2.395       .  S
Cd305       O311   2.429       .  S
Cd305       O310   2.413   1_545  S
Cd305       O306   2.526   1_545  S
Cd305       O309   2.488   1_545  S
Cd305       O307   2.418   1_545  S
C308        O312   1.266       .  A
C308       C1790   1.482       .  S
O313        C316   1.274       .  A
O313       Cd318   2.512       .  S
C314        O323   1.268       .  A
C314        O319   1.272       .  A
C314       C1806   1.483       .  S
O315        C321   1.274       .  A
O315       Cd318   2.532       .  S
C316        O324   1.263       .  A
C316       C1749   1.467       .  S
C317        O322   1.273       .  A
C317        O320   1.269       .  A
C317       C1753   1.484       .  S
Cd318       O325   2.401       .  S
Cd318       O324   2.381       .  S
Cd318       O323   2.414       .  S
Cd318       O319   2.498       .  S
Cd318       O322   2.491       .  S
Cd318       O320   2.430       .  S
C321        O325   1.263       .  A
C321       C1745   1.477       .  S
O326        C329   1.269       .  A
O326       Cd331   2.499       .  S
C327        O336   1.264       .  A
C327        O332   1.269       .  A
C327       C1746   1.487       .  S
O328        C334   1.270       .  A
O328       Cd331   2.523       .  S
C329        O337   1.267       .  A
C329       C1737   1.482       .  S
C330        O335   1.268       .  A
C330        O333   1.267       .  A
C330       C1814   1.481       .  S
Cd331       O338   2.404       .  S
Cd331       O337   2.443       .  S
Cd331       O336   2.430       .  S
Cd331       O332   2.528       .  S
Cd331       O335   2.494       .  S
Cd331       O333   2.444       .  S
C334        O338   1.265       .  A
C334       C1742   1.483       .  S
O339        C342   1.275       .  A
O339       Cd344   2.516       .  S
C340        O349   1.267       .  A
C340        O345   1.273       .  A
C340       C1726   1.477       .  S
O341        C347   1.274       .  A
O341       Cd344   2.530       .  S
C342        O350   1.264       .  A
C342       C1741   1.470       .  S
C343        O348   1.274       .  A
C343        O346   1.269       .  A
C343       C1729   1.483       .  S
Cd344       O351   2.386       .  S
Cd344       O350   2.376       .  S
Cd344       O349   2.415       .  S
Cd344       O345   2.504       .  S
Cd344       O348   2.494       .  S
Cd344       O346   2.420       .  S
C347        O351   1.264       .  A
C347       C1734   1.475       .  S
O352        C355   1.272       .  A
O352       Cd357   2.504       .  S
C353        O362   1.265       .  A
C353        O358   1.271       .  A
C353       C1733   1.486       .  S
O354        C360   1.269       .  A
O354       Cd357   2.504       .  S
C355        O363   1.264       .  A
C355       C1781   1.474       .  S
C356        O361   1.269       .  A
C356        O359   1.266       .  A
C356       C1721   1.473       .  S
Cd357       O364   2.406       .  S
Cd357       O363   2.419       .  S
Cd357       O362   2.411       .  S
Cd357       O358   2.527       .  S
Cd357       O361   2.478       .  S
Cd357       O359   2.409       .  S
C360        O364   1.266       .  A
C360       C1750   1.480       .  S
O365        C368   1.277       .  A
O365       Cd370   2.498       .  S
C366        O375   1.265       .  A
C366        O371   1.276       .  A
C366       C1717   1.479       .  S
O367        C373   1.274       .  A
O367       Cd370   2.493       .  S
C368        O376   1.267       .  A
C368       C1709   1.476       .  S
C369        O374   1.274       .  A
C369        O372   1.267       .  A
C369       C1834   1.473       .  S
Cd370       O377   2.389       .  S
Cd370       O376   2.406       .  S
Cd370       O375   2.391       .  S
Cd370       O371   2.539       .  S
Cd370       O374   2.486       .  S
Cd370       O372   2.406       .  S
C373        O377   1.269       .  A
C373       C1713   1.481       .  S
O378        C381   1.271   1_556  A
O378       Cd383   2.486       .  S
C379        O388   1.262       .  A
C379        O384   1.272       .  A
C379       C1705   1.469       .  S
O380        C386   1.272       .  A
O380       Cd383   2.509       .  S
C381        O389   1.268       .  A
C381       C1850   1.480       .  S
C382        O387   1.272       .  A
C382        O385   1.265       .  A
C382       C1718   1.490       .  S
Cd383       O390   2.414       .  S
Cd383       O389   2.426   1_556  S
Cd383       O388   2.392       .  S
Cd383       O384   2.517       .  S
Cd383       O387   2.537   1_556  S
Cd383       O385   2.410   1_556  S
C386        O390   1.264       .  A
C386       C1701   1.473       .  S
O391        C394   1.272       .  A
O391       Cd396   2.487       .  S
C392        O401   1.265       .  A
C392        O397   1.271       .  A
C392       C1697   1.485       .  S
O393        C399   1.270       .  A
O393       Cd396   2.511       .  S
C394        O402   1.265       .  A
C394       C1689   1.472       .  S
C395        O400   1.270       .  A
C395        O398   1.266       .  A
C395       C1693   1.476       .  S
Cd396       O403   2.396       .  S
Cd396       O402   2.417       .  S
Cd396       O401   2.404       .  S
Cd396       O397   2.526       .  S
Cd396       O400   2.494       .  S
Cd396       O398   2.399       .  S
C399        O403   1.265       .  A
C399       C1706   1.481       .  S
O404        C407   1.272   1_554  A
O404       Cd409   2.494       .  S
C405        O414   1.263       .  A
C405        O410   1.273       .  A
C405       C1714   1.469       .  S
O406        C412   1.273       .  A
O406       Cd409   2.495       .  S
C407        O415   1.268       .  A
C407       C1681   1.483       .  S
C408        O413   1.274       .  A
C408        O411   1.263       .  A
C408       C1698   1.474       .  S
Cd409       O416   2.430       .  S
Cd409       O415   2.420   1_554  S
Cd409       O414   2.391       .  S
Cd409       O410   2.512       .  S
Cd409       O413   2.534   1_554  S
Cd409       O411   2.388   1_554  S
C412        O416   1.269       .  A
C412       C1685   1.484       .  S
O417        C420   1.273       .  A
O417       Cd422   2.531       .  S
C418        O427   1.265       .  A
C418        O423   1.274       .  A
C418       C1669   1.472       .  S
O419        C425   1.272       .  A
O419       Cd422   2.507       .  S
C420        O428   1.266       .  A
C420       C1677   1.487       .  S
C421        O426   1.272       .  A
C421        O424   1.266       .  A
C421       C1738   1.477       .  S
Cd422       O429   2.408       .  S
Cd422       O428   2.393       .  S
Cd422       O427   2.398       .  S
Cd422       O423   2.501       .  S
Cd422       O426   2.497       .  S
Cd422       O424   2.428       .  S
C425        O429   1.267       .  A
C425       C1673   1.484       .  S
O430        C433   1.275       .  A
O430       Cd435   2.499       .  S
C431        O440   1.268       .  A
C431        O436   1.274       .  A
C431       C1666   1.486       .  S
O432        C438   1.276       .  A
O432       Cd435   2.528       .  S
C433        O441   1.267       .  A
C433       C1730   1.476       .  S
C434        O439   1.275       .  A
C434        O437   1.266       .  A
C434       C1662   1.476       .  S
Cd435       O442   2.383       .  S
Cd435       O441   2.410       .  S
Cd435       O440   2.404   1_545  S
Cd435       O436   2.512   1_545  S
Cd435       O439   2.506   1_545  S
Cd435       O437   2.405   1_545  S
C438        O442   1.265       .  A
C438       C1678   1.475       .  S
O443        C446   1.272       .  A
O443       Cd448   2.485       .  S
C444        O453   1.264       .  A
C444        O449   1.274       .  A
C444       C1657   1.470       .  S
O445        C451   1.274       .  A
O445       Cd448   2.503       .  S
C446        O454   1.270       .  A
C446       C1649   1.483       .  S
C447        O452   1.275       .  A
C447        O450   1.265       .  A
C447       C1665   1.476       .  S
Cd448       O455   2.404       .  S
Cd448       O454   2.423       .  S
Cd448       O453   2.390       .  S
Cd448       O449   2.500       .  S
Cd448       O452   2.524       .  S
Cd448       O450   2.391       .  S
C451        O455   1.265       .  A
C451       C1653   1.473       .  S
O456        C459   1.271       .  A
O456       Cd461   2.514       .  S
C457        O466   1.262       .  A
C457        O462   1.272       .  A
C457       C1674   1.473       .  S
O458        C464   1.268       .  A
O458       Cd461   2.501   1_565  S
C459        O467   1.266   1_545  A
C459       C1641   1.484   1_545  S
C460        O465   1.269       .  A
C460        O463   1.268       .  A
C460       C1646   1.477       .  S
Cd461       O468   2.417   1_545  S
Cd461       O467   2.416   1_545  S
Cd461       O466   2.403       .  S
Cd461       O462   2.532       .  S
Cd461       O465   2.479       .  S
Cd461       O463   2.431       .  S
C464        O468   1.265       .  A
C464       C1658   1.479       .  S
O469        C472   1.276       .  A
O469       Cd474   2.496       .  S
C470        O479   1.268       .  A
C470        O475   1.276       .  A
C470       C1629   1.469       .  S
O471        C477   1.275       .  A
O471       Cd474   2.493   1_556  S
C472        O480   1.266       .  A
C472       C1637   1.469       .  S
C473        O478   1.276       .  A
C473        O476   1.268       .  A
C473       C1765   1.467       .  S
Cd474       O481   2.365   1_554  S
Cd474       O480   2.374       .  S
Cd474       O479   2.378   1_554  S
Cd474       O475   2.484   1_554  S
Cd474       O478   2.465       .  S
Cd474       O476   2.384       .  S
C477        O481   1.266       .  A
C477       C1633   1.466       .  S
O482        C485   1.273       .  A
O482       Cd487   2.532       .  S
C483        O492   1.262       .  A
C483        O488   1.273       .  A
C483       C1625   1.475       .  S
O484        C490   1.270       .  A
O484       Cd487   2.506       .  S
C485        O493   1.264       .  A
C485       C1758   1.480       .  S
C486        O491   1.270       .  A
C486        O489   1.268       .  A
C486       C1858   1.480       .  S
Cd487       O494   2.404       .  S
Cd487       O493   2.417       .  S
Cd487       O492   2.397       .  S
Cd487       O488   2.543       .  S
Cd487       O491   2.497       .  S
Cd487       O489   2.416       .  S
C490        O494   1.266       .  A
C490       C1638   1.480       .  S
O495        C498   1.271       .  A
O495       Cd500   2.515       .  S
C496        O505   1.268       .  A
C496        O501   1.271       .  A
C496       C1654   1.482       .  S
O497        C503   1.271       .  A
O497       Cd500   2.505       .  S
C498        O506   1.265       .  A
C498       C1634   1.479       .  S
C499        O504   1.272       .  A
C499        O502   1.265       .  A
C499       C1621   1.486       .  S
Cd500       O507   2.437       .  S
Cd500       O506   2.378       .  S
Cd500       O505   2.423       .  S
Cd500       O501   2.489       .  S
Cd500       O504   2.529       .  S
Cd500       O502   2.395       .  S
C503        O507   1.265       .  A
C503       C1617   1.478       .  S
O508        C511   1.276       .  A
O508       Cd513   2.494   1_554  S
C509        O518   1.265       .  A
C509        O514   1.276       .  A
C509       C1622   1.473       .  S
O510        C516   1.275       .  A
O510       Cd513   2.507       .  S
C511        O519   1.268       .  A
C511       C1830   1.476       .  S
C512        O517   1.275       .  A
C512        O515   1.268       .  A
C512       C1626   1.488       .  S
Cd513       O520   2.399       .  S
Cd513       O519   2.404   1_556  S
Cd513       O518   2.373       .  S
Cd513       O514   2.528       .  S
Cd513       O517   2.512   1_556  S
Cd513       O515   2.397   1_556  S
C516        O520   1.267       .  A
C516       C1642   1.474       .  S
O521        C524   1.269       .  A
O521       Cd526   2.493       .  S
C522        O531   1.262       .  A
C522        O527   1.265       .  A
C522       C1613   1.484       .  S
O523        C529   1.268       .  A
O523       Cd526   2.509       .  S
C524        O532   1.267       .  A
C524       C1618   1.483       .  S
C525        O530   1.265       .  A
C525        O528   1.263       .  A
C525       C1609   1.475       .  S
Cd526       O533   2.434       .  S
Cd526       O532   2.453       .  S
Cd526       O531   2.453       .  S
Cd526       O527   2.520       .  S
Cd526       O530   2.484       .  S
Cd526       O528   2.471       .  S
C529        O533   1.265       .  A
C529       C1922   1.481       .  S
O534        C537   1.273       .  A
O534       Cd539   2.473       .  S
C535        O544   1.263       .  A
C535        O540   1.272       .  A
C535       C1605   1.472       .  S
O536        C542   1.274       .  A
O536       Cd539   2.526       .  S
C537        O545   1.270       .  A
C537       C1946   1.479       .  S
C538        O543   1.273       .  A
C538        O541   1.265       .  A
C538       C1682   1.475       .  S
Cd539       O546   2.394       .  S
Cd539       O545   2.416       .  S
Cd539       O544   2.391       .  S
Cd539       O540   2.529       .  S
Cd539       O543   2.514       .  S
Cd539       O541   2.408       .  S
C542        O546   1.263       .  A
C542       C1614   1.475       .  S
O547        C550   1.270       .  A
O547       Cd552   2.492       .  S
C548        O557   1.262       .  A
C548        O553   1.267       .  A
C548       C1610   1.477       .  S
O549        C555   1.271       .  A
O549       Cd552   2.503       .  S
C550        O558   1.265       .  A
C550       C1597   1.475       .  S
C551        O556   1.267       .  A
C551        O554   1.263       .  A
C551       C1630   1.479       .  S
Cd552       O559   2.391       .  S
Cd552       O558   2.437       .  S
Cd552       O557   2.442       .  S
Cd552       O553   2.507       .  S
Cd552       O556   2.511       .  S
Cd552       O554   2.413       .  S
C555        O559   1.266       .  A
C555       C1601   1.479       .  S
O560        C563   1.272       .  A
O560       Cd565   2.504       .  S
C561        O570   1.266       .  A
C561        O566   1.272       .  A
C561       C1694   1.468       .  S
O562        C568   1.272       .  A
O562       Cd565   2.527       .  S
C563        O571   1.263       .  A
C563       C1602   1.467       .  S
C564        O569   1.273       .  A
C564        O567   1.265       .  A
C564       C1593   1.472       .  S
Cd565       O572   2.388       .  S
Cd565       O571   2.390       .  S
Cd565       O570   2.398       .  S
Cd565       O566   2.480       .  S
Cd565       O569   2.490       .  S
Cd565       O567   2.413       .  S
C568        O572   1.265       .  A
C568       C1606   1.485       .  S
O573        C576   1.273       .  A
O573       Cd578   2.514       .  S
C574        O583   1.266       .  A
C574        O579   1.274       .  A
C574       C1577   1.474       .  S
O575        C581   1.273       .  A
O575       Cd578   2.519       .  S
C576        O584   1.263       .  A
C576       C1590   1.469       .  S
C577        O582   1.273       .  A
C577        O580   1.266       .  A
C577       C1581   1.474       .  S
Cd578       O585   2.381       .  S
Cd578       O584   2.384       .  S
Cd578       O583   2.405       .  S
Cd578       O579   2.501       .  S
Cd578       O582   2.489       .  S
Cd578       O580   2.414       .  S
C581        O585   1.266       .  A
C581       C1585   1.483       .  S
O586        C589   1.274       .  A
O586       Cd591   2.497   1_556  S
C587        O596   1.263       .  A
C587        O592   1.273       .  A
C587       C1586   1.470       .  S
O588        C594   1.273       .  A
O588       Cd591   2.516   1_556  S
C589        O597   1.266       .  A
C589       C1565   1.471       .  S
C590        O595   1.272       .  A
C590        O593   1.268       .  A
C590       C1569   1.480       .  S
Cd591       O598   2.384   1_554  S
Cd591       O597   2.394   1_554  S
Cd591       O596   2.382       .  S
Cd591       O592   2.522       .  S
Cd591       O595   2.491       .  S
Cd591       O593   2.418       .  S
C594        O598   1.266       .  A
C594       C1574   1.482       .  S
O599        C602   1.274       .  A
O599       Cd604   2.511       .  S
C600        O609   1.266       .  A
C600        O605   1.273       .  A
C600       C1553   1.470       .  S
O601        C607   1.274       .  A
O601       Cd604   2.521       .  S
C602        O610   1.264       .  A
C602       C1573   1.467       .  S
C603        O608   1.274       .  A
C603        O606   1.269       .  A
C603       C1558   1.484       .  S
Cd604       O611   2.389       .  S
Cd604       O610   2.374       .  S
Cd604       O609   2.397       .  S
Cd604       O605   2.491       .  S
Cd604       O608   2.496       .  S
Cd604       O606   2.414       .  S
C607        O611   1.264       .  A
C607       C1561   1.473       .  S
O612        C615   1.272       .  A
O612       Cd617   2.505   1_554  S
C613        O622   1.265       .  A
C613        O618   1.272       .  A
C613       C1562   1.484       .  S
O614        C620   1.271       .  A
O614       Cd617   2.505   1_554  S
C615        O623   1.265       .  A
C615       C1545   1.476       .  S
C616        O621   1.270       .  A
C616        O619   1.267       .  A
C616       C1550   1.481       .  S
Cd617       O624   2.396   1_556  S
Cd617       O623   2.421   1_556  S
Cd617       O622   2.397       .  S
Cd617       O618   2.524       .  S
Cd617       O621   2.495       .  S
Cd617       O619   2.418       .  S
C620        O624   1.266       .  A
C620       C1589   1.481       .  S
O625        C628   1.273       .  A
O625       Cd630   2.537       .  S
C626        O635   1.267       .  A
C626        O631   1.272       .  A
C626       C1770   1.485       .  S
O627        C633   1.272       .  A
O627       Cd630   2.511       .  S
C628        O636   1.262       .  A
C628       C1541   1.474       .  S
C629        O634   1.271       .  A
C629        O632   1.269       .  A
C629       C1546   1.480       .  S
Cd630       O637   2.397       .  S
Cd630       O636   2.390       .  S
Cd630       O635   2.431       .  S
Cd630       O631   2.505       .  S
Cd630       O634   2.485       .  S
Cd630       O632   2.426       .  S
C633        O637   1.263       .  A
C633       C1537   1.470       .  S
O638        C641   1.270       .  A
O638       Cd643   2.492       .  S
C639        O648   1.265       .  A
C639        O644   1.270       .  A
C639       C1538   1.480       .  S
O640        C646   1.270       .  A
O640       Cd643   2.510       .  S
C641        O649   1.267       .  A
C641       C1530   1.479       .  S
C642        O647   1.270       .  A
C642        O645   1.266       .  A
C642       C1778   1.481       .  S
Cd643       O650   2.419       .  S
Cd643       O649   2.416       .  S
Cd643       O648   2.398       .  S
Cd643       O644   2.506       .  S
Cd643       O647   2.501       .  S
Cd643       O645   2.419       .  S
C646        O650   1.266       .  A
C646       C1533   1.484       .  S
O651        C654   1.272       .  A
O651       Cd656   2.490       .  S
C652        O661   1.263       .  A
C652        O657   1.272       .  A
C652       C1526   1.475       .  S
O653        C659   1.272       .  A
O653       Cd656   2.527       .  S
C654        O662   1.268       .  A
C654       C1582   1.481       .  S
C655        O660   1.272       .  A
C655        O658   1.264       .  A
C655       C1522   1.478       .  S
Cd656       O663   2.404       .  S
Cd656       O662   2.427       .  S
Cd656       O661   2.410       .  S
Cd656       O657   2.521       .  S
Cd656       O660   2.516       .  S
Cd656       O658   2.425       .  S
C659        O663   1.266       .  A
C659       C1542   1.487       .  S
O664        C667   1.275       .  A
O664       Cd669   2.519       .  S
C665        O674   1.266       .  A
C665        O670   1.275       .  A
C665       C1513   1.477       .  S
O666        C672   1.273       .  A
O666       Cd669   2.506       .  S
C667        O675   1.264       .  A
C667       C1534   1.474       .  S
C668        O673   1.273       .  A
C668        O671   1.269       .  A
C668       C1517   1.482       .  S
Cd669       O676   2.408       .  S
Cd669       O675   2.389       .  S
Cd669       O674   2.409       .  S
Cd669       O670   2.513       .  S
Cd669       O673   2.491       .  S
Cd669       O671   2.421       .  S
C672        O676   1.267       .  A
C672       C1525   1.484       .  S
O677        C680   1.275       .  A
O677       Cd682   2.504       .  S
C678        O687   1.269       .  A
C678        O683   1.272       .  A
C678       C1521   1.485       .  S
O679        C685   1.275       .  A
O679       Cd682   2.529       .  S
C680        O688   1.265       .  A
C680       C1509   1.469       .  S
C681        O686   1.275       .  A
C681        O684   1.268       .  A
C681       C2002   1.485       .  S
Cd682       O689   2.393       .  S
Cd682       O688   2.381       .  S
Cd682       O687   2.433       .  S
Cd682       O683   2.493       .  S
Cd682       O686   2.501       .  S
Cd682       O684   2.414       .  S
C685        O689   1.265       .  A
C685       C1505   1.476       .  S
O690        C693   1.267       .  A
O690       Cd695   2.496       .  S
C691        O700   1.265       .  A
C691        O696   1.268       .  A
C691       C1501   1.477       .  S
O692        C698   1.268       .  A
O692       Cd695   2.511       .  S
C693        O701   1.267       .  A
C693       C1994   1.481       .  S
C694        O699   1.268       .  A
C694        O697   1.266       .  A
C694       C1906   1.478       .  S
Cd695       O702   2.408       .  S
Cd695       O701   2.437       .  S
Cd695       O700   2.415       .  S
Cd695       O696   2.496       .  S
Cd695       O699   2.494       .  S
Cd695       O697   2.419       .  S
C698        O702   1.264       .  A
C698       C1510   1.480       .  S
O703        C706   1.271       .  A
O703       Cd708   2.524       .  S
C704        O713   1.265       .  A
C704        O709   1.272       .  A
C704       C1686   1.478       .  S
O705        C711   1.270       .  A
O705       Cd708   2.502       .  S
C706        O714   1.266       .  A
C706       C1506   1.486       .  S
C707        O712   1.271       .  A
C707        O710   1.266       .  A
C707       C1497   1.484       .  S
Cd708       O715   2.433       .  S
Cd708       O714   2.415       .  S
Cd708       O713   2.424       .  S
Cd708       O709   2.514       .  S
Cd708       O712   2.515       .  S
Cd708       O710   2.415       .  S
C711        O715   1.267       .  A
C711       C1514   1.484       .  S
O716        C719   1.275       .  A
O716       Cd721   2.524       .  S
C717        O726   1.263       .  A
C717        O722   1.275       .  A
C717       C1498   1.471       .  S
O718        C724   1.273       .  A
O718       Cd721   2.481       .  S
C719        O727   1.265       .  A
C719       C1898   1.477       .  S
C720        O725   1.273       .  A
C720        O723   1.264       .  A
C720       C1502   1.469       .  S
Cd721       O728   2.421       .  S
Cd721       O727   2.404       .  S
Cd721       O726   2.380       .  S
Cd721       O722   2.521       .  S
Cd721       O725   2.494       .  S
Cd721       O723   2.399       .  S
C724        O728   1.270       .  A
C724       C1710   1.482       .  S
O729        C732   1.274       .  A
O729       Cd734   2.519       .  S
C730        O739   1.268       .  A
C730        O735   1.275       .  A
C730       C1485   1.472       .  S
O731        C737   1.276       .  A
O731       Cd734   2.500       .  S
C732        O740   1.265       .  A
C732       C1493   1.472       .  S
C733        O738   1.275       .  A
C733        O736   1.268       .  A
C733       C1490   1.483       .  S
Cd734       O741   2.392       .  S
Cd734       O740   2.383       .  S
Cd734       O739   2.407       .  S
Cd734       O735   2.476       .  S
Cd734       O738   2.511       .  S
Cd734       O736   2.387       .  S
C737        O741   1.266       .  A
C737       C1650   1.473       .  S
O742        C745   1.271       .  A
O742       Cd747   2.523   1_655  S
C743        O752   1.268       .  A
C743        O748   1.269       .  A
C743       C1661   1.484       .  S
O744        C750   1.270       .  A
O744       Cd747   2.525       .  S
C745        O753   1.262       .  A
C745       C1481   1.473       .  S
C746        O751   1.270       .  A
C746        O749   1.268       .  A
C746       C1478   1.480       .  S
Cd747       O754   2.398       .  S
Cd747       O753   2.404   1_455  S
Cd747       O752   2.449       .  S
Cd747       O748   2.496       .  S
Cd747       O751   2.492   1_455  S
Cd747       O749   2.411   1_455  S
C750        O754   1.264       .  A
C750       C1494   1.484       .  S
O755        C758   1.272       .  A
O755       Cd760   2.516       .  S
C756        O765   1.262       .  A
C756        O761   1.273       .  A
C756       C1473   1.469       .  S
O757        C763   1.271       .  A
O757       Cd760   2.509       .  S
C758        O766   1.265       .  A
C758       C1465   1.475       .  S
C759        O764   1.270       .  A
C759        O762   1.268       .  A
C759       C1469   1.483       .  S
Cd760       O767   2.415       .  S
Cd760       O766   2.407       .  S
Cd760       O765   2.388       .  S
Cd760       O761   2.519       .  S
Cd760       O764   2.494       .  S
Cd760       O762   2.432       .  S
C763        O767   1.266       .  A
C763       C1482   1.483       .  S
O768        C771   1.274       .  A
O768       Cd773   2.511       .  S
C769        O778   1.267       .  A
C769        O774   1.274       .  A
C769       C1458   1.476       .  S
O770        C776   1.274       .  A
O770       Cd773   2.507   1_655  S
C771        O779   1.264       .  A
C771       C1489   1.470       .  S
C772        O777   1.274       .  A
C772        O775   1.266       .  A
C772       C1461   1.475       .  S
Cd773       O780   2.382   1_455  S
Cd773       O779   2.383       .  S
Cd773       O778   2.416   1_455  S
Cd773       O774   2.492   1_455  S
Cd773       O777   2.496       .  S
Cd773       O775   2.412       .  S
C776        O780   1.267       .  A
C776       C1474   1.482       .  S
O781        C784   1.273       .  A
O781       Cd786   2.489       .  S
C782        O791   1.268       .  A
C782        O787   1.273       .  A
C782       C1454   1.484       .  S
O783        C789   1.274       .  A
O783       Cd786   2.497       .  S
C784        O792   1.266       .  A
C784       C1445   1.471       .  S
C785        O790   1.275       .  A
C785        O788   1.264       .  A
C785       C1449   1.470       .  S
Cd786       O793   2.402       .  S
Cd786       O792   2.404       .  S
Cd786       O791   2.399       .  S
Cd786       O787   2.507       .  S
Cd786       O790   2.519       .  S
Cd786       O788   2.377       .  S
C789        O793   1.265       .  A
C789       C1529   1.471       .  S
O794        C797   1.270   1_554  A
O794       Cd799   2.499       .  S
C795        O804   1.265       .  A
C795        O800   1.271       .  A
C795       C1450   1.482       .  S
O796        C802   1.272       .  A
O796       Cd799   2.535   1_556  S
C797        O805   1.268       .  A
C797       C1433   1.483       .  S
C798        O803   1.271       .  A
C798        O801   1.267       .  A
C798       C1438   1.483       .  S
Cd799       O806   2.395   1_554  S
Cd799       O805   2.431   1_554  S
Cd799       O804   2.398       .  S
Cd799       O800   2.522       .  S
Cd799       O803   2.510       .  S
Cd799       O801   2.419       .  S
C802        O806   1.262       .  A
C802       C1441   1.474       .  S
O807        C810   1.271       .  A
O807       Cd812   2.526       .  S
C808        O817   1.265       .  A
C808        O813   1.272       .  A
C808       C1957   1.475       .  S
O809        C815   1.270       .  A
O809       Cd812   2.516       .  S
C810        O818   1.265       .  A
C810       C1442   1.485       .  S
C811        O816   1.270       .  A
C811        O814   1.267       .  A
C811       C1425   1.479       .  S
Cd812       O819   2.407       .  S
Cd812       O818   2.403       .  S
Cd812       O817   2.420       .  S
Cd812       O813   2.506       .  S
Cd812       O816   2.493       .  S
Cd812       O814   2.421       .  S
C815        O819   1.265       .  A
C815       C1429   1.483       .  S
O820        C823   1.274   1_556  A
O820       Cd825   2.494       .  S
C821        O830   1.266       .  A
C821        O826   1.276       .  A
C821       C1430   1.472       .  S
O822        C828   1.276       .  A
O822       Cd825   2.517   1_554  S
C823        O831   1.268       .  A
C823       C1518   1.477       .  S
C824        O829   1.275       .  A
C824        O827   1.269       .  A
C824       C1942   1.483       .  S
Cd825       O832   2.379   1_556  S
Cd825       O831   2.418   1_556  S
Cd825       O830   2.383       .  S
Cd825       O826   2.507       .  S
Cd825       O829   2.498       .  S
Cd825       O827   2.399       .  S
C828        O832   1.265       .  A
C828       C1453   1.473       .  S
O833        C836   1.273   1_455  A
O833       Cd838   2.481       .  S
C834        O843   1.267       .  A
C834        O839   1.273       .  A
C834       C1421   1.481       .  S
O835        C841   1.273       .  A
O835       Cd838   2.504       .  S
C836        O844   1.266       .  A
C836       C1413   1.470       .  S
C837        O842   1.275       .  A
C837        O840   1.263       .  A
C837       C1417   1.469       .  S
Cd838       O845   2.410       .  S
Cd838       O844   2.407   1_455  S
Cd838       O843   2.388       .  S
Cd838       O839   2.504       .  S
Cd838       O842   2.521   1_455  S
Cd838       O840   2.374   1_455  S
C841        O845   1.266       .  A
C841       C1434   1.474       .  S
O846        C849   1.274       .  A
O846       Cd851   2.490       .  S
C847        O856   1.264       .  A
C847        O852   1.274       .  A
C847       C1409   1.468       .  S
O848        C854   1.274       .  A
O848       Cd851   2.509       .  S
C849        O857   1.266       .  A
C849       C1426   1.472       .  S
C850        O855   1.273       .  A
C850        O853   1.269       .  A
C850       C1670   1.479       .  S
Cd851       O858   2.381       .  S
Cd851       O857   2.402       .  S
Cd851       O856   2.379       .  S
Cd851       O852   2.512       .  S
Cd851       O855   2.486       .  S
Cd851       O853   2.398       .  S
C854        O858   1.263       .  A
C854       C1422   1.469       .  S
O859        C862   1.273       .  A
O859       Cd864   2.507       .  S
C860        O869   1.266       .  A
C860        O865   1.273       .  A
C860       C1418   1.482       .  S
O861        C867   1.274       .  A
O861       Cd864   2.523       .  S
C862        O870   1.266       .  A
C862       C1557   1.477       .  S
C863        O868   1.272       .  A
C863        O866   1.268       .  A
C863       C1401   1.487       .  S
Cd864       O871   2.393       .  S
Cd864       O870   2.417       .  S
Cd864       O869   2.381       .  S
Cd864       O865   2.516       .  S
Cd864       O868   2.513       .  S
Cd864       O866   2.427       .  S
C867        O871   1.264       .  A
C867       C1405   1.474       .  S
O872        C875   1.272       .  A
O872       Cd877   2.519   1_655  S
C873        O882   1.265       .  A
C873        O878   1.272       .  A
C873       C1645   1.473       .  S
O874        C880   1.272       .  A
O874       Cd877   2.510       .  S
C875        O883   1.266       .  A
C875       C1406   1.484       .  S
C876        O881   1.271       .  A
C876        O879   1.267       .  A
C876       C1566   1.479       .  S
Cd877       O884   2.393       .  S
Cd877       O883   2.404   1_455  S
Cd877       O882   2.423       .  S
Cd877       O878   2.489       .  S
Cd877       O881   2.498   1_455  S
Cd877       O879   2.399   1_455  S
C880        O884   1.266       .  A
C880       C1410   1.482       .  S
O885        C888   1.277       .  A
O885       Cd890   2.533       .  S
C886        O895   1.267       .  A
C886        O891   1.276       .  A
C886       C1402   1.479       .  S
O887        C893   1.274       .  A
O887       Cd890   2.508       .  S
C888        O896   1.264       .  A
C888       C1397   1.477       .  S
C889        O894   1.274       .  A
C889        O892   1.267       .  A
C889       C1978   1.477       .  S
Cd890       O897   2.391       .  S
Cd890       O896   2.381       .  S
Cd890       O895   2.402       .  S
Cd890       O891   2.520       .  S
Cd890       O894   2.493       .  S
Cd890       O892   2.423       .  S
C893        O897   1.268       .  A
C893       C1393   1.484       .  S
O898        C901   1.267       .  A
O898       Cd903   2.489       .  S
C899        O908   1.265       .  A
C899        O904   1.268       .  A
C899       C1389   1.479       .  S
O900        C906   1.269       .  A
O900       Cd903   2.532       .  S
C901        O909   1.267       .  A
C901       C1974   1.481       .  S
C902        O907   1.269       .  A
C902        O905   1.266       .  A
C902       C1457   1.482       .  S
Cd903       O910   2.432       .  S
Cd903       O909   2.453       .  S
Cd903       O908   2.422       .  S
Cd903       O904   2.506       .  S
Cd903       O907   2.504       .  S
Cd903       O905   2.435       .  S
C906        O910   1.265       .  A
C906       C1398   1.488       .  S
O911        C914   1.270       .  A
O911       Cd916   2.502       .  S
C912        O921   1.262       .  A
C912        O917   1.271       .  A
C912       C1394   1.472       .  S
O913        C919   1.268       .  A
O913       Cd916   2.507       .  S
C914        O922   1.266       .  A
C914       C1702   1.482       .  S
C915        O920   1.269       .  A
C915        O918   1.267       .  A
C915       C1414   1.476       .  S
Cd916       O923   2.404       .  S
Cd916       O922   2.420       .  S
Cd916       O921   2.398       .  S
Cd916       O917   2.532       .  S
Cd916       O920   2.480       .  S
Cd916       O918   2.419       .  S
C919        O923   1.266       .  A
C919       C1385   1.481       .  S
O924        C927   1.277       .  A
O924       Cd929   2.512       .  S
C925        O934   1.267       .  A
C925        O930   1.276       .  A
C925       C1470   1.477       .  S
O926        C932   1.275       .  A
O926       Cd929   2.492       .  S
C927        O935   1.264       .  A
C927       C1386   1.468       .  S
C928        O933   1.274       .  A
C928        O931   1.270       .  A
C928       C1690   1.478       .  S
Cd929       O936   2.393       .  S
Cd929       O935   2.364       .  S
Cd929       O934   2.402       .  S
Cd929       O930   2.500       .  S
Cd929       O933   2.475       .  S
Cd929       O931   2.401       .  S
C932        O936   1.266       .  A
C932       C1390   1.471       .  S
O937        C940   1.268       .  A
O937       Cd942   2.516       .  S
C938        O947   1.267       .  A
C938        O943   1.271       .  A
C938       C1722   1.468       .  S
O939        C945   1.269       .  A
O939       Cd942   2.511       .  S
C940        O948   1.263       .  A
C940       C1381   1.478       .  S
C941        O946   1.271       .  A
C941        O944   1.266       .  A
C941       C1374   1.480       .  S
Cd942       O949   2.420       .  S
Cd942       O948   2.398       .  S
Cd942       O947   2.416       .  S
Cd942       O943   2.460       .  S
Cd942       O946   2.496       .  S
Cd942       O944   2.421       .  S
C945        O949   1.263       .  A
C945       C1378   1.477       .  S
O950        C953   1.269       .  A
O950       Cd955   2.496   1_655  S
C951        O960   1.261       .  A
C951        O956   1.263       .  A
C951       C1377   1.474       .  S
O952        C958   1.266       .  A
O952       Cd955   2.488   1_655  S
C953        O961   1.266       .  A
C953       C1365   1.475       .  S
C954        O959   1.266       .  A
C954        O957   1.262       .  A
C954       C1725   1.484       .  S
Cd955       O962   2.480   1_455  S
Cd955       O961   2.436   1_455  S
Cd955       O960   2.464       .  S
Cd955       O956   2.497       .  S
Cd955       O959   2.528       .  S
Cd955       O957   2.448       .  S
C958        O962   1.264       .  A
C958       C1369   1.480       .  S
O963        C966   1.270       .  A
O963       Cd968   2.522       .  S
C964        O973   1.261       .  A
C964        O969   1.266       .  A
C964       C1370   1.481       .  S
O965        C971   1.266       .  A
O965       Cd968   2.508       .  S
C966        O974   1.265       .  A
C966       C2005   1.482       .  S
C967        O972   1.267       .  A
C967        O970   1.266       .  A
C967       C1362   1.476       .  S
Cd968       O975   2.467       .  S
Cd968       O974   2.450       .  S
Cd968       O973   2.464       .  S
Cd968       O969   2.515       .  S
Cd968       O972   2.473       .  S
Cd968       O970   2.471       .  S
C971        O975   1.265       .  A
C971       C1357   1.484       .  S
O976        C979   1.271       .  A
O976       Cd981   2.503       .  S
C977        O986   1.266       .  A
C977        O982   1.273       .  A
C977       C1353   1.475       .  S
O978        C984   1.272       .  A
O978       Cd981   2.515       .  S
C979        O987   1.265       .  A
C979       C1361   1.477       .  S
C980        O985   1.275       .  A
C980        O983   1.266       .  A
C980       C1382   1.469       .  S
Cd981       O988   2.392       .  S
Cd981       O987   2.429       .  S
Cd981       O986   2.423   1_655  S
Cd981       O982   2.496   1_655  S
Cd981       O985   2.497   1_655  S
Cd981       O983   2.383   1_655  S
C984        O988   1.265       .  A
C984       C1970   1.481       .  S
O989        C992   1.271       .  A
O989       Cd994   2.508       .  S
C990        O999   1.268       .  A
C990        O995   1.270       .  A
C990       C1341   1.482       .  S
O991        C997   1.271       .  A
O991       Cd994   2.511       .  S
C992       O1000   1.263       .  A
C992       C1350   1.470       .  S
C993        O998   1.270       .  A
C993        O996   1.267       .  A
C993       C1354   1.480       .  S
Cd994      O1001   2.393       .  S
Cd994      O1000   2.407       .  S
Cd994       O999   2.433       .  S
Cd994       O995   2.486       .  S
Cd994       O998   2.488       .  S
Cd994       O996   2.426       .  S
C997       O1001   1.265       .  A
C997       C1346   1.480       .  S
O1002      C1005   1.271       .  A
O1002     Cd1007   2.492       .  S
C1003      O1012   1.262       .  A
C1003      O1008   1.272       .  A
C1003      C1337   1.471       .  S
O1004      C1010   1.271       .  A
O1004     Cd1007   2.510       .  S
C1005      O1013   1.266       .  A
C1005      C1373   1.474       .  S
C1006      O1011   1.271       .  A
C1006      O1009   1.267       .  A
C1006      C1446   1.478       .  S
Cd1007     O1014   2.399       .  S
Cd1007     O1013   2.427       .  S
Cd1007     O1012   2.392       .  S
Cd1007     O1008   2.520       .  S
Cd1007     O1011   2.492       .  S
Cd1007     O1009   2.405       .  S
C1010      O1014   1.265       .  A
C1010      C1349   1.480       .  S
O1015      C1018   1.271       .  A
O1015     Cd1020   2.492       .  S
C1016      O1025   1.262       .  A
C1016      O1021   1.271       .  A
C1016      C1345   1.469       .  S
O1017      C1023   1.270       .  A
O1017     Cd1020   2.528       .  S
C1018      O1026   1.268       .  A
C1018      C1861   1.481       .  S
C1019      O1024   1.272       .  A
C1019      O1022   1.264       .  A
C1019      C1329   1.471       .  S
Cd1020     O1027   2.395       .  S
Cd1020     O1026   2.416       .  S
Cd1020     O1025   2.399       .  S
Cd1020     O1021   2.512       .  S
Cd1020     O1024   2.499       .  S
Cd1020     O1022   2.407       .  S
C1023      O1027   1.265       .  A
C1023      C1334   1.484       .  S
O1028      C1031   1.274       .  A
O1028     Cd1033   2.517       .  S
C1029      O1038   1.262       .  A
C1029      O1034   1.275       .  A
C1029      C1333   1.470       .  S
O1030      C1036   1.272       .  A
O1030     Cd1033   2.497       .  S
C1031      O1039   1.265       .  A
C1031      C1437   1.476       .  S
C1032      O1037   1.272       .  A
C1032      O1035   1.266       .  A
C1032      C1338   1.482       .  S
Cd1033     O1040   2.414       .  S
Cd1033     O1039   2.404       .  S
Cd1033     O1038   2.363       .  S
Cd1033     O1034   2.528       .  S
Cd1033     O1037   2.509       .  S
Cd1033     O1035   2.400       .  S
C1036      O1040   1.269       .  A
C1036      C1846   1.484       .  S
O1041      C1044   1.271       .  A
O1041     Cd1046   2.495       .  S
C1042      O1051   1.266       .  A
C1042      O1047   1.272       .  A
C1042      C1325   1.479       .  S
O1043      C1049   1.273       .  A
O1043     Cd1046   2.510       .  S
C1044      O1052   1.267       .  A
C1044      C1330   1.481       .  S
C1045      O1050   1.273       .  A
C1045      O1048   1.263       .  A
C1045      C1322   1.478       .  S
Cd1046     O1053   2.420       .  S
Cd1046     O1052   2.418       .  S
Cd1046     O1051   2.391       .  S
Cd1046     O1047   2.509       .  S
Cd1046     O1050   2.538       .  S
Cd1046     O1048   2.404       .  S
C1049      O1053   1.265       .  A
C1049      C1874   1.476       .  S
O1054      C1057   1.271       .  A
O1054     Cd1059   2.494       .  S
C1055      O1064   1.266       .  A
C1055      O1060   1.270       .  A
C1055      C1321   1.488       .  S
O1056      C1062   1.271       .  A
O1056     Cd1059   2.517       .  S
C1057      O1065   1.267       .  A
C1057      C1462   1.482       .  S
C1058      O1063   1.272       .  A
C1058      O1061   1.264       .  A
C1058      C1342   1.475       .  S
Cd1059     O1066   2.423       .  S
Cd1059     O1065   2.434       .  S
Cd1059     O1064   2.429       .  S
Cd1059     O1060   2.524       .  S
Cd1059     O1063   2.518       .  S
Cd1059     O1061   2.415       .  S
C1062      O1066   1.266       .  A
C1062      C1317   1.486       .  S
O1067      C1070   1.273       .  A
O1067     Cd1072   2.506       .  S
C1068      O1077   1.264       .  A
C1068      O1073   1.275       .  A
C1068      C1318   1.475       .  S
O1069      C1075   1.273       .  A
O1069     Cd1072   2.483       .  S
C1070      O1078   1.268       .  A
C1070      C1926   1.486       .  S
C1071      O1076   1.274       .  A
C1071      O1074   1.264       .  A
C1071      C1313   1.472       .  S
Cd1072     O1079   2.405       .  S
Cd1072     O1078   2.427       .  S
Cd1072     O1077   2.394       .  S
Cd1072     O1073   2.522       .  S
Cd1072     O1076   2.513       .  S
Cd1072     O1074   2.390       .  S
C1075      O1079   1.269       .  A
C1075      C1486   1.478       .  S
O1080      C1083   1.270       .  A
O1080     Cd1085   2.495       .  S
C1081      O1090   1.265       .  A
C1081      O1086   1.270       .  A
C1081      C1314   1.483       .  S
O1082      C1088   1.271       .  A
O1082     Cd1085   2.515       .  S
C1083      O1091   1.267       .  A
C1083      C1910   1.482       .  S
C1084      O1089   1.269       .  A
C1084      O1087   1.267       .  A
C1084      C1930   1.479       .  S
Cd1085     O1092   2.395       .  S
Cd1085     O1091   2.428       .  S
Cd1085     O1090   2.411       .  S
Cd1085     O1086   2.516       .  S
Cd1085     O1089   2.497       .  S
Cd1085     O1087   2.422       .  S
C1088      O1092   1.262       .  A
C1088      C1326   1.470       .  S
O1093      C1096   1.273       .  A
O1093     Cd1098   2.498       .  S
C1094      O1103   1.263       .  A
C1094      O1099   1.273       .  A
C1094      C1309   1.472       .  S
O1095      C1101   1.271       .  A
O1095     Cd1098   2.496       .  S
C1096      O1104   1.266       .  A
C1096      C1794   1.474       .  S
C1097      O1102   1.271       .  A
C1097      O1100   1.268       .  A
C1097      C1554   1.478       .  S
Cd1098     O1105   2.385       .  S
Cd1098     O1104   2.413       .  S
Cd1098     O1103   2.390       .  S
Cd1098     O1099   2.526       .  S
Cd1098     O1102   2.486       .  S
Cd1098     O1100   2.399       .  S
C1101      O1105   1.266       .  A
C1101      C1305   1.479       .  S
O1106      C1109   1.275       .  A
O1106     Cd1111   2.534   1_565  S
C1107      O1116   1.265       .  A
C1107      O1112   1.274       .  A
C1107      C1549   1.473       .  S
O1108      C1114   1.272       .  A
O1108     Cd1111   2.515       .  S
C1109      O1117   1.263       .  A
C1109      C1301   1.473       .  S
C1110      O1115   1.272       .  A
C1110      O1113   1.268       .  A
C1110      C1598   1.479       .  S
Cd1111     O1118   2.393       .  S
Cd1111     O1117   2.377   1_545  S
Cd1111     O1116   2.402       .  S
Cd1111     O1112   2.503       .  S
Cd1111     O1115   2.486   1_545  S
Cd1111     O1113   2.419   1_545  S
C1114      O1118   1.267       .  A
C1114      C1310   1.483       .  S
O1119      C1122   1.267       .  A
O1119     Cd1124   2.486       .  S
C1120      O1129   1.264       .  A
C1120      O1125   1.268       .  A
C1120      C1297   1.480       .  S
O1121      C1127   1.270       .  A
O1121     Cd1124   2.536       .  S
C1122      O1130   1.267       .  A
C1122      C1594   1.479       .  S
C1123      O1128   1.269       .  A
C1123      O1126   1.265       .  A
C1123      C1293   1.482       .  S
Cd1124     O1131   2.412       .  S
Cd1124     O1130   2.446       .  S
Cd1124     O1129   2.415       .  S
Cd1124     O1125   2.513       .  S
Cd1124     O1128   2.511       .  S
Cd1124     O1126   2.427       .  S
C1127      O1131   1.264       .  A
C1127      C1302   1.487       .  S
O1132      C1135   1.273       .  A
O1132     Cd1137   2.510       .  S
C1133      O1142   1.265   1_545  A
C1133      O1138   1.274       .  A
C1133      C1290   1.475   1_545  S
O1134      C1140   1.273       .  A
O1134     Cd1137   2.508   1_565  S
C1135      O1143   1.262       .  A
C1135      C1306   1.465       .  S
C1136      O1141   1.272       .  A
C1136      O1139   1.269       .  A
C1136      C1802   1.480       .  S
Cd1137     O1144   2.395       .  S
Cd1137     O1143   2.381       .  S
Cd1137     O1142   2.396   1_545  S
Cd1137     O1138   2.514       .  S
Cd1137     O1141   2.490       .  S
Cd1137     O1139   2.415       .  S
C1140      O1144   1.263   1_565  A
C1140      C1298   1.470       .  S
O1145      C1148   1.270       .  A
O1145     Cd1150   2.493   1_565  S
C1146      O1155   1.260       .  A
C1146      O1151   1.262       .  A
C1146      C1286   1.475       .  S
O1147      C1153   1.268       .  A
O1147     Cd1150   2.518       .  S
C1148      O1156   1.265       .  A
C1148      C1277   1.476       .  S
C1149      O1154   1.269       .  A
C1149      O1152   1.266       .  A
C1149      C1281   1.478       .  S
Cd1150     O1157   2.433       .  S
Cd1150     O1156   2.445   1_545  S
Cd1150     O1155   2.475       .  S
Cd1150     O1151   2.488       .  S
Cd1150     O1154   2.487   1_545  S
Cd1150     O1152   2.446   1_545  S
C1153      O1157   1.262       .  A
C1153      C1366   1.481       .  S
O1158      C1161   1.271       .  A
O1158     Cd1163   2.518       .  S
C1159      O1168   1.262       .  A
C1159      O1164   1.262       .  A
C1159      C1273   1.480       .  S
O1160      C1166   1.265       .  A
O1160     Cd1163   2.435       .  S
C1161      O1169   1.263       .  A
C1161      C1358   1.478       .  S
C1162      O1167   1.267       .  A
C1162      O1165   1.263       .  A
C1162      C1578   1.482       .  S
Cd1163     O1170   2.488       .  S
Cd1163     O1169   2.435       .  S
Cd1163     O1168   2.488       .  S
Cd1163     O1164   2.498       .  S
Cd1163     O1167   2.519       .  S
Cd1163     O1165   2.430       .  S
C1166      O1170   1.269       .  A
C1166      C1285   1.476       .  S
O1171      C1174   1.270       .  A
O1171     Cd1176   2.495       .  S
C1172      O1181   1.264       .  A
C1172      O1177   1.262       .  A
C1172      C1282   1.478       .  S
O1173      C1179   1.266       .  A
O1173     Cd1176   2.419       .  S
C1174      O1182   1.265       .  A
C1174      C1838   1.476       .  S
C1175      O1180   1.268       .  A
C1175      O1178   1.263       .  A
C1175      C1265   1.482       .  S
Cd1176     O1183   2.496       .  S
Cd1176     O1182   2.444       .  S
Cd1176     O1181   2.493       .  S
Cd1176     O1177   2.483       .  S
Cd1176     O1180   2.516       .  S
Cd1176     O1178   2.435       .  S
C1179      O1183   1.270       .  A
C1179      C1270   1.476       .  S
O1184      C1187   1.269       .  A
O1184     Cd1189   2.497       .  S
C1185      O1194   1.263       .  A
C1185      O1190   1.260       .  A
C1185      C1269   1.472       .  S
O1186      C1192   1.268       .  A
O1186     Cd1189   2.526   1_565  S
C1187      O1195   1.265       .  A
C1187      C1570   1.475       .  S
C1188      O1193   1.267       .  A
C1188      O1191   1.264       .  A
C1188      C1274   1.482       .  S
Cd1189     O1196   2.439   1_545  S
Cd1189     O1195   2.440       .  S
Cd1189     O1194   2.496   1_545  S
Cd1189     O1190   2.455   1_545  S
Cd1189     O1193   2.498       .  S
Cd1189     O1191   2.467       .  S
C1192      O1196   1.263       .  A
C1192      C1826   1.485       .  S
O1197      C1200   1.275       .  A
O1197     Cd1202   2.508       .  S
C1198      O1207   1.268       .  A
C1198      O1203   1.274       .  A
C1198      C1266   1.476       .  S
O1199      C1205   1.276       .  A
O1199     Cd1202   2.522       .  S
C1200      O1208   1.265       .  A
C1200      C1261   1.471       .  S
C1201      O1206   1.276       .  A
C1201      O1204   1.267       .  A
C1201      C1894   1.476       .  S
Cd1202     O1209   2.366       .  S
Cd1202     O1208   2.382       .  S
Cd1202     O1207   2.414       .  S
Cd1202     O1203   2.492       .  S
Cd1202     O1206   2.504       .  S
Cd1202     O1204   2.400       .  S
C1205      O1209   1.264       .  A
C1205      C1257   1.471       .  S
O1210      C1213   1.272       .  A
O1210     Cd1215   2.506       .  S
C1211      O1220   1.263       .  A
C1211      O1216   1.273       .  A
C1211      C1253   1.474       .  S
O1212      C1218   1.271       .  A
O1212     Cd1215   2.513       .  S
C1213      O1221   1.265       .  A
C1213      C1886   1.475       .  S
C1214      O1219   1.271       .  A
C1214      O1217   1.267       .  A
C1214      C1289   1.484       .  S
Cd1215     O1222   2.402       .  S
Cd1215     O1221   2.422       .  S
Cd1215     O1220   2.395       .  S
Cd1215     O1216   2.532       .  S
Cd1215     O1219   2.504       .  S
Cd1215     O1217   2.422       .  S
C1218      O1222   1.266       .  A
C1218      C1262   1.483       .  S
O1223      C1226   1.273       .  A
O1223     Cd1228   2.508       .  S
C1224      O1233   1.265       .  A
C1224      O1229   1.272       .  A
C1224      C1258   1.484       .  S
O1225      C1231   1.270       .  A
O1225     Cd1228   2.506       .  S
C1226      O1234   1.264       .  A
C1226      C1477   1.472       .  S
C1227      O1232   1.270       .  A
C1227      O1230   1.268       .  A
C1227      C1278   1.479       .  S
Cd1228     O1235   2.408       .  S
Cd1228     O1234   2.401       .  S
Cd1228     O1233   2.386       .  S
Cd1228     O1229   2.528       .  S
Cd1228     O1232   2.479       .  S
Cd1228     O1230   2.438       .  S
C1231      O1235   1.266       .  A
C1231      C1249   1.482       .  S
O1236      C1239   1.274       .  A
O1236     Cd1241   2.504       .  S
C1237      O1246   1.264       .  A
C1237      O1242   1.275       .  A
C1237      C1250   1.471       .  S
O1238      C1244   1.273       .  A
O1238     Cd1241   2.503       .  S
C1239      O1247   1.266       .  A
C1239      C1294   1.475       .  S
C1240      O1245   1.273       .  A
C1240      O1243   1.267       .  A
C1240      C1254   1.485       .  S
Cd1241     O1248   2.404       .  S
Cd1241     O1247   2.406       .  S
Cd1241     O1246   2.380       .  S
Cd1241     O1242   2.517       .  S
Cd1241     O1245   2.514       .  S
Cd1241     O1243   2.398       .  S
C1244      O1248   1.268       .  A
C1244      C1466   1.483       .  S
C1249      C1250   1.343       .  D
C1249      H1251   1.086       .  S
C1250      H1252   1.087       .  S
C1253      C1254   1.346       .  D
C1253      H1255   1.087       .  S
C1254      H1256   1.085       .  S
C1257      C1258   1.345       .  D
C1257      H1259   1.087       .  S
C1258      H1260   1.086       .  S
C1261      C1262   1.345       .  D
C1261      H1263   1.087       .  S
C1262      H1264   1.086       .  S
C1265      C1266   1.346       .  D
C1265      H1267   1.086       .  S
C1266      H1268   1.087       .  S
C1269      C1270   1.344       .  D
C1269      H1271   1.087       .  S
C1270      H1272   1.086       .  S
C1273      C1274   1.348       .  D
C1273      H1275   1.086       .  S
C1274      H1276   1.086       .  S
C1277      C1278   1.344       .  D
C1277      H1279   1.087       .  S
C1278      H1280   1.087       .  S
C1281      C1282   1.346       .  D
C1281      H1283   1.086       .  S
C1282      H1284   1.086       .  S
C1285      C1286   1.346       .  D
C1285      H1287   1.086       .  S
C1286      H1288   1.087       .  S
C1289      C1290   1.344       .  D
C1289      H1291   1.086   1_565  S
C1290      H1292   1.088       .  S
C1293      C1294   1.345       .  D
C1293      H1295   1.086       .  S
C1294      H1296   1.087       .  S
C1297      C1298   1.343       .  D
C1297      H1299   1.086       .  S
C1298      H1300   1.087       .  S
C1301      C1302   1.346       .  D
C1301      H1303   1.087       .  S
C1302      H1304   1.085       .  S
C1305      C1306   1.343       .  D
C1305      H1307   1.086       .  S
C1306      H1308   1.087       .  S
C1309      C1310   1.345       .  D
C1309      H1311   1.087       .  S
C1310      H1312   1.086       .  S
C1313      C1314   1.345       .  D
C1313      H1315   1.087       .  S
C1314      H1316   1.086       .  S
C1317      C1318   1.346       .  D
C1317      H1319   1.086       .  S
C1318      H1320   1.087       .  S
C1321      C1322   1.346       .  D
C1321      H1323   1.085       .  S
C1322      H1324   1.087       .  S
C1325      C1326   1.344       .  D
C1325      H1327   1.086       .  S
C1326      H1328   1.088       .  S
C1329      C1330   1.345       .  D
C1329      H1331   1.087       .  S
C1330      H1332   1.086       .  S
C1333      C1334   1.344       .  D
C1333      H1335   1.087       .  S
C1334      H1336   1.086       .  S
C1337      C1338   1.345       .  D
C1337      H1339   1.087       .  S
C1338      H1340   1.086       .  S
C1341      C1342   1.344       .  D
C1341      H1343   1.087       .  S
C1342      H1344   1.087       .  S
C1345      C1346   1.344       .  D
C1345      H1347   1.087       .  S
C1346      H1348   1.086       .  S
C1349      C1350   1.345       .  D
C1349      H1351   1.086       .  S
C1350      H1352   1.087       .  S
C1353      C1354   1.344       .  D
C1353      H1355   1.087       .  S
C1354      H1356   1.087       .  S
C1357      C1358   1.345       .  D
C1357      H1359   1.086       .  S
C1358      H1360   1.087       .  S
C1361      C1362   1.345       .  D
C1361      H1363   1.086       .  S
C1362      H1364   1.087       .  S
C1365      C1366   1.346       .  D
C1365      H1367   1.087       .  S
C1366      H1368   1.086       .  S
C1369      C1370   1.348       .  D
C1369      H1371   1.086       .  S
C1370      H1372   1.086       .  S
C1373      C1374   1.345       .  D
C1373      H1375   1.087       .  S
C1374      H1376   1.086       .  S
C1377      C1378   1.345       .  D
C1377      H1379   1.087       .  S
C1378      H1380   1.085       .  S
C1381      C1382   1.343       .  D
C1381      H1383   1.086       .  S
C1382      H1384   1.087       .  S
C1385      C1386   1.342       .  D
C1385      H1387   1.086       .  S
C1386      H1388   1.087       .  S
C1389      C1390   1.343       .  D
C1389      H1391   1.086       .  S
C1390      H1392   1.087       .  S
C1393      C1394   1.345       .  D
C1393      H1395   1.086       .  S
C1394      H1396   1.087       .  S
C1397      C1398   1.346       .  D
C1397      H1399   1.087       .  S
C1398      H1400   1.086       .  S
C1401      C1402   1.346       .  D
C1401      H1403   1.085       .  S
C1402      H1404   1.087       .  S
C1405      C1406   1.345       .  D
C1405      H1407   1.087       .  S
C1406      H1408   1.085       .  S
C1409      C1410   1.344       .  D
C1409      H1411   1.087       .  S
C1410      H1412   1.086       .  S
C1413      C1414   1.342       .  D
C1413      H1415   1.087       .  S
C1414      H1416   1.086       .  S
C1417      C1418   1.344       .  D
C1417      H1419   1.087       .  S
C1418      H1420   1.085       .  S
C1421      C1422   1.344       .  D
C1421      H1423   1.086       .  S
C1422      H1424   1.087       .  S
C1425      C1426   1.343       .  D
C1425      H1427   1.086       .  S
C1426      H1428   1.087       .  S
C1429      C1430   1.345       .  D
C1429      H1431   1.086       .  S
C1430      H1432   1.087       .  S
C1433      C1434   1.345       .  D
C1433      H1435   1.086       .  S
C1434      H1436   1.087       .  S
C1437      C1438   1.345       .  D
C1437      H1439   1.087       .  S
C1438      H1440   1.085       .  S
C1441      C1442   1.346       .  D
C1441      H1443   1.087       .  S
C1442      H1444   1.085       .  S
C1445      C1446   1.343       .  D
C1445      H1447   1.087       .  S
C1446      H1448   1.086       .  S
C1449      C1450   1.344       .  D
C1449      H1451   1.087       .  S
C1450      H1452   1.085       .  S
C1453      C1454   1.345       .  D
C1453      H1455   1.087       .  S
C1454      H1456   1.085       .  S
C1457      C1458   1.345       .  D
C1457      H1459   1.086       .  S
C1458      H1460   1.087       .  S
C1461      C1462   1.345       .  D
C1461      H1463   1.087       .  S
C1462      H1464   1.087       .  S
C1465      C1466   1.345       .  D
C1465      H1467   1.087       .  S
C1466      H1468   1.085       .  S
C1469      C1470   1.344       .  D
C1469      H1471   1.086       .  S
C1470      H1472   1.087       .  S
C1473      C1474   1.345       .  D
C1473      H1475   1.086       .  S
C1474      H1476   1.086       .  S
C1477      C1478   1.343       .  D
C1477      H1479   1.087       .  S
C1478      H1480   1.086       .  S
C1481      C1482   1.345       .  D
C1481      H1483   1.087       .  S
C1482      H1484   1.086       .  S
C1485      C1486   1.344       .  D
C1485      H1487   1.087       .  S
C1486      H1488   1.086       .  S
C1489      C1490   1.345       .  D
C1489      H1491   1.087       .  S
C1490      H1492   1.086       .  S
C1493      C1494   1.345       .  D
C1493      H1495   1.087       .  S
C1494      H1496   1.086       .  S
C1497      C1498   1.345       .  D
C1497      H1499   1.086       .  S
C1498      H1500   1.087       .  S
C1501      C1502   1.342       .  D
C1501      H1503   1.086       .  S
C1502      H1504   1.087       .  S
C1505      C1506   1.346       .  D
C1505      H1507   1.087       .  S
C1506      H1508   1.086       .  S
C1509      C1510   1.343       .  D
C1509      H1511   1.087       .  S
C1510      H1512   1.086       .  S
C1513      C1514   1.345       .  D
C1513      H1515   1.087       .  S
C1514      H1516   1.086       .  S
C1517      C1518   1.345       .  D
C1517      H1519   1.086       .  S
C1518      H1520   1.087       .  S
C1521      C1522   1.346       .  D
C1521      H1523   1.086       .  S
C1522      H1524   1.087       .  S
C1525      C1526   1.346       .  D
C1525      H1527   1.086       .  S
C1526      H1528   1.087       .  S
C1529      C1530   1.343       .  D
C1529      H1531   1.087       .  S
C1530      H1532   1.087       .  S
C1533      C1534   1.345       .  D
C1533      H1535   1.086       .  S
C1534      H1536   1.087       .  S
C1537      C1538   1.344       .  D
C1537      H1539   1.087       .  S
C1538      H1540   1.086       .  S
C1541      C1542   1.347       .  D
C1541      H1543   1.087       .  S
C1542      H1544   1.086       .  S
C1545      C1546   1.343       .  D
C1545      H1547   1.087       .  S
C1546      H1548   1.086       .  S
C1549      C1550   1.344       .  D
C1549      H1551   1.087       .  S
C1550      H1552   1.086       .  S
C1553      C1554   1.343       .  D
C1553      H1555   1.087       .  S
C1554      H1556   1.086       .  S
C1557      C1558   1.346       .  D
C1557      H1559   1.087       .  S
C1558      H1560   1.086       .  S
C1561      C1562   1.346       .  D
C1561      H1563   1.087       .  S
C1562      H1564   1.086       .  S
C1565      C1566   1.343       .  D
C1565      H1567   1.087       .  S
C1566      H1568   1.086       .  S
C1569      C1570   1.345       .  D
C1569      H1571   1.086       .  S
C1570      H1572   1.087       .  S
C1573      C1574   1.345       .  D
C1573      H1575   1.087       .  S
C1574      H1576   1.085       .  S
C1577      C1578   1.345       .  D
C1577      H1579   1.087       .  S
C1578      H1580   1.086       .  S
C1581      C1582   1.345       .  D
C1581      H1583   1.087       .  S
C1582      H1584   1.086       .  S
C1585      C1586   1.345       .  D
C1585      H1587   1.085       .  S
C1586      H1588   1.087       .  S
C1589      C1590   1.344       .  D
C1589      H1591   1.086       .  S
C1590      H1592   1.087       .  S
C1593      C1594   1.343       .  D
C1593      H1595   1.087       .  S
C1594      H1596   1.087       .  S
C1597      C1598   1.345       .  D
C1597      H1599   1.087       .  S
C1598      H1600   1.086       .  S
C1601      C1602   1.344       .  D
C1601      H1603   1.086       .  S
C1602      H1604   1.087       .  S
C1605      C1606   1.346       .  D
C1605      H1607   1.087       .  S
C1606      H1608   1.085       .  S
C1609      C1610   1.346       .  D
C1609      H1611   1.086       .  S
C1610      H1612   1.086       .  S
C1613      C1614   1.345       .  D
C1613      H1615   1.086       .  S
C1614      H1616   1.087       .  S
C1617      C1618   1.346       .  D
C1617      H1619   1.087       .  S
C1618      H1620   1.087       .  S
C1621      C1622   1.346       .  D
C1621      H1623   1.086       .  S
C1622      H1624   1.087       .  S
C1625      C1626   1.347       .  D
C1625      H1627   1.086       .  S
C1626      H1628   1.085       .  S
C1629      C1630   1.343       .  D
C1629      H1631   1.087       .  S
C1630      H1632   1.086       .  S
C1633      C1634   1.343       .  D
C1633      H1635   1.087       .  S
C1634      H1636   1.085       .  S
C1637      C1638   1.343       .  D
C1637      H1639   1.087       .  S
C1638      H1640   1.086       .  S
C1641      C1642   1.346       .  D
C1641      H1643   1.086       .  S
C1642      H1644   1.087       .  S
C1645      C1646   1.342       .  D
C1645      H1647   1.087       .  S
C1646      H1648   1.087       .  S
C1649      C1650   1.344       .  D
C1649      H1651   1.087       .  S
C1650      H1652   1.087       .  S
C1653      C1654   1.345       .  D
C1653      H1655   1.087       .  S
C1654      H1656   1.086       .  S
C1657      C1658   1.343       .  D
C1657      H1659   1.087       .  S
C1658      H1660   1.086       .  S
C1661      C1662   1.344       .  D
C1661      H1663   1.086       .  S
C1662      H1664   1.087       .  S
C1665      C1666   1.346       .  D
C1665      H1667   1.087       .  S
C1666      H1668   1.085       .  S
C1669      C1670   1.343       .  D
C1669      H1671   1.087       .  S
C1670      H1672   1.086       .  S
C1673      C1674   1.345       .  D
C1673      H1675   1.086       .  S
C1674      H1676   1.087       .  S
C1677      C1678   1.347       .  D
C1677      H1679   1.085       .  S
C1678      H1680   1.087       .  S
C1681      C1682   1.345       .  D
C1681      H1683   1.086       .  S
C1682      H1684   1.087       .  S
C1685      C1686   1.345       .  D
C1685      H1687   1.086       .  S
C1686      H1688   1.087       .  S
C1689      C1690   1.343       .  D
C1689      H1691   1.087       .  S
C1690      H1692   1.086       .  S
C1693      C1694   1.343       .  D
C1693      H1695   1.087       .  S
C1694      H1696   1.088       .  S
C1697      C1698   1.345       .  D
C1697      H1699   1.085       .  S
C1698      H1700   1.087       .  S
C1701      C1702   1.345       .  D
C1701      H1703   1.087       .  S
C1702      H1704   1.086       .  S
C1705      C1706   1.344       .  D
C1705      H1707   1.087       .  S
C1706      H1708   1.086       .  S
C1709      C1710   1.344       .  D
C1709      H1711   1.087       .  S
C1710      H1712   1.086       .  S
C1713      C1714   1.344       .  D
C1713      H1715   1.086       .  S
C1714      H1716   1.087       .  S
C1717      C1718   1.348       .  D
C1717      H1719   1.087       .  S
C1718      H1720   1.085       .  S
C1721      C1722   1.342       .  D
C1721      H1723   1.087       .  S
C1722      H1724   1.087       .  S
C1725      C1726   1.347       .  D
C1725      H1727   1.086       .  S
C1726      H1728   1.087       .  S
C1729      C1730   1.345       .  D
C1729      H1731   1.086       .  S
C1730      H1732   1.087       .  S
C1733      C1734   1.346       .  D
C1733      H1735   1.085       .  S
C1734      H1736   1.087       .  S
C1737      C1738   1.346       .  D
C1737      H1739   1.086       .  S
C1738      H1740   1.087       .  S
C1741      C1742   1.344       .  D
C1741      H1743   1.087       .  S
C1742      H1744   1.086       .  S
C1745      C1746   1.346       .  D
C1745      H1747   1.087       .  S
C1746      H1748   1.086       .  S
C1749      C1750   1.343       .  D
C1749      H1751   1.087       .  S
C1750      H1752   1.086       .  S
C1753      C1754   1.346       .  D
C1753      H1755   1.086       .  S
C1754      H1756   1.087       .  S
C1757      C1758   1.346       .  D
C1757      H1759   1.085       .  S
C1758      H1760   1.087       .  S
C1761      C1762   1.347       .  D
C1761      H1763   1.087       .  S
C1762      H1764   1.086       .  S
C1765      C1766   1.342       .  D
C1765      H1767   1.087       .  S
C1766      H1768   1.087       .  S
C1769      C1770   1.346       .  D
C1769      H1771   1.087       .  S
C1770      H1772   1.086       .  S
C1773      C1774   1.346       .  D
C1773      H1775   1.086       .  S
C1774      H1776   1.086       .  S
C1777      C1778   1.344       .  D
C1777      H1779   1.087       .  S
C1778      H1780   1.086       .  S
C1781      C1782   1.343       .  D
C1781      H1783   1.087       .  S
C1782      H1784   1.086       .  S
C1785      C1786   1.344       .  D
C1785      H1787   1.086       .  S
C1786      H1788   1.087       .  S
C1789      C1790   1.344       .  D
C1789      H1791   1.087       .  S
C1790      H1792   1.086       .  S
C1793      C1794   1.344       .  D
C1793      H1795   1.086       .  S
C1794      H1796   1.087       .  S
C1797      C1798   1.344       .  D
C1797      H1799   1.086       .  S
C1798      H1800   1.087       .  S
C1801      C1802   1.344       .  D
C1801      H1803   1.088       .  S
C1802      H1804   1.086       .  S
C1805      C1806   1.345       .  D
C1805      H1807   1.087       .  S
C1806      H1808   1.086       .  S
C1809      C1810   1.347       .  D
C1809      H1811   1.086       .  S
C1810      H1812   1.087       .  S
C1813      C1814   1.344       .  D
C1813      H1815   1.087       .  S
C1814      H1816   1.086       .  S
C1817      C1818   1.345       .  D
C1817      H1819   1.087       .  S
C1818      H1820   1.086       .  S
C1821      C1822   1.346       .  D
C1821      H1823   1.087       .  S
C1822      H1824   1.086       .  S
C1825      C1826   1.347       .  D
C1825      H1827   1.087       .  S
C1826      H1828   1.086   1_655  S
C1829      C1830   1.345       .  D
C1829      H1831   1.086       .  S
C1830      H1832   1.087       .  S
C1833      C1834   1.344       .  D
C1833      H1835   1.087       .  S
C1834      H1836   1.087       .  S
C1837      C1838   1.345       .  D
C1837      H1839   1.087       .  S
C1838      H1840   1.087       .  S
C1841      C1842   1.343       .  D
C1841      H1843   1.086       .  S
C1842      H1844   1.087       .  S
C1845      C1846   1.345       .  D
C1845      H1847   1.087       .  S
C1846      H1848   1.086       .  S
C1849      C1850   1.344       .  D
C1849      H1851   1.087       .  S
C1850      H1852   1.087       .  S
C1853      C1854   1.345       .  D
C1853      H1855   1.087       .  S
C1854      H1856   1.085       .  S
C1857      C1858   1.343       .  D
C1857      H1859   1.088       .  S
C1858      H1860   1.086       .  S
C1861      C1862   1.344       .  D
C1861      H1863   1.086       .  S
C1862      H1864   1.087       .  S
C1865      C1866   1.345       .  D
C1865      H1867   1.086       .  S
C1866      H1868   1.086       .  S
C1869      C1870   1.345       .  D
C1869      H1871   1.087       .  S
C1870      H1872   1.085       .  S
C1873      C1874   1.346       .  D
C1873      H1875   1.086       .  S
C1874      H1876   1.087       .  S
C1877      C1878   1.349       .  D
C1877      H1879   1.087       .  S
C1878      H1880   1.086       .  S
C1881      C1882   1.343       .  D
C1881      H1883   1.087       .  S
C1882      H1884   1.086       .  S
C1885      C1886   1.344       .  D
C1885      H1887   1.086       .  S
C1886      H1888   1.087       .  S
C1889      C1890   1.344       .  D
C1889      H1891   1.087       .  S
C1890      H1892   1.086       .  S
C1893      C1894   1.346       .  D
C1893      H1895   1.086       .  S
C1894      H1896   1.087       .  S
C1897      C1898   1.346       .  D
C1897      H1899   1.085       .  S
C1898      H1900   1.087       .  S
C1901      C1902   1.346       .  D
C1901      H1903   1.087       .  S
C1902      H1904   1.085       .  S
C1905      C1906   1.342       .  D
C1905      H1907   1.088       .  S
C1906      H1908   1.086       .  S
C1909      C1910   1.345       .  D
C1909      H1911   1.087       .  S
C1910      H1912   1.087       .  S
C1913      C1914   1.346       .  D
C1913      H1915   1.086       .  S
C1914      H1916   1.087       .  S
C1917      C1918   1.345       .  D
C1917      H1919   1.086       .  S
C1918      H1920   1.087       .  S
C1921      C1922   1.344       .  D
C1921      H1923   1.087       .  S
C1922      H1924   1.086       .  S
C1925      C1926   1.347       .  D
C1925      H1927   1.087       .  S
C1926      H1928   1.086       .  S
C1929      C1930   1.343       .  D
C1929      H1931   1.087       .  S
C1930      H1932   1.086       .  S
C1933      C1934   1.343       .  D
C1933      H1935   1.087       .  S
C1934      H1936   1.086       .  S
C1937      C1938   1.347       .  D
C1937      H1939   1.085       .  S
C1938      H1940   1.086       .  S
C1941      C1942   1.345       .  D
C1941      H1943   1.087       .  S
C1942      H1944   1.086       .  S
C1945      C1946   1.344       .  D
C1945      H1947   1.087       .  S
C1946      H1948   1.087       .  S
C1949      C1950   1.345       .  D
C1949      H1951   1.087       .  S
C1950      H1952   1.085       .  S
C1953      C1954   1.345       .  D
C1953      H1955   1.087       .  S
C1954      H1956   1.086       .  S
C1957      C1958   1.345       .  D
C1957      H1959   1.087       .  S
C1958      H1960   1.086       .  S
C1961      C1962   1.346       .  D
C1961      H1963   1.086       .  S
C1962      H1964   1.087       .  S
C1965      C1966   1.345       .  D
C1965      H1967   1.087       .  S
C1966      H1968   1.086       .  S
C1969      C1970   1.345       .  D
C1969      H1971   1.087       .  S
C1970      H1972   1.086       .  S
C1973      C1974   1.343       .  D
C1973      H1975   1.087       .  S
C1974      H1976   1.087       .  S
C1977      C1978   1.345       .  D
C1977      H1979   1.087       .  S
C1978      H1980   1.087       .  S
C1981      C1982   1.343       .  D
C1981      H1983   1.086       .  S
C1982      H1984   1.087       .  S
C1985      C1986   1.343       .  D
C1985      H1987   1.086       .  S
C1986      H1988   1.087       .  S
C1989      C1990   1.345       .  D
C1989      H1991   1.087       .  S
C1990      H1992   1.086       .  S
C1993      C1994   1.343       .  D
C1993      H1995   1.088       .  S
C1994      H1996   1.087       .  S
C1997      C1998   1.346       .  D
C1997      H1999   1.085       .  S
C1998      H2000   1.087       .  S
C2001      C2002   1.347       .  D
C2001      H2003   1.086       .  S
C2002      H2004   1.086       .  S
C2005      C2006   1.348       .  D
C2005      H2007   1.087       .  S
C2006      H2008   1.086       .  S
C2009      C2010   1.344       .  D
C2009      H2011   1.087       .  S
C2010      H2012   1.085       .  S
C2013      C2014   1.349       .  D
C2013      H2015   1.087       .  S
C2014      H2016   1.087       .  S
