geometry optimzed in LAMMPS
_audit_creation_date              2020-11-30 
_audit_creation_method            'lammps2cif' 
_symmetry_space_group_name_H-M    'P1' 
_symmetry_Int_Tables_number       1 
_symmetry_cell_setting            triclinic 
loop_ 
_symmetry_equiv_pos_as_xyz 
  x,y,z 
_cell_length_a                    45.46917559 
_cell_length_b                    26.751421389038168 
_cell_length_c                    36.293968490697885 
_cell_angle_alpha                 89.24351526445963 
_cell_angle_beta                  112.24951621183607 
_cell_angle_gamma                 90.67431025845605 
loop_ 
_atom_site_label 
_atom_site_type_symbol 
_atom_site_fract_x 
_atom_site_fract_y 
_atom_site_fract_z 
_atom_site_charge 
O1          O  0.48725186  0.02304404  0.44089487    -0.74100
O2          O  0.02151080  0.05158158  0.05304618    -0.74100
O3          O  0.04290387  0.50612732  0.50201273    -0.74200
O4          O  0.46516847  0.06880921  0.49187460    -0.74200
O5          O  0.44549619  0.99555507  0.00038785    -0.74200
O6          O  0.02573939  0.43431112  0.01755776    -0.74100
O7          O  0.00046056  0.48044607  0.06460378    -0.74100
O8          O  0.47097702  0.44832234  0.45397301    -0.74200
Ni9        Ni  0.00475731  0.04010544  0.49652197     1.25400
Ni10       Ni  0.48490361  0.46216220  0.00961084     1.25400
C11         C  0.47460851  0.48005412  0.42932765     0.88100
C12         C  0.01721389  0.01996663  0.07742714     0.88000
C13         C  0.04761998  0.45992260  0.01177061     0.88000
C14         C  0.44196946  0.04264866  0.49356958     0.88200
N15         N  0.31400688  0.18419482  0.48484633    -0.03200
C16         C  0.33839619  0.15414226  0.50789885    -0.00600
C17         C  0.33974191  0.15257333  0.04660804    -0.23400
C18         C  0.31520843  0.18076796  0.04765875    -0.23700
C19         C  0.29998671  0.20033493  0.50988434    -0.00700
H20         H  0.35656166  0.13196737  0.07145454     0.13100
H21         H  0.30914195  0.18664362  0.07341495     0.13200
N22         N  0.17644543  0.34125625  0.00176108    -0.03200
C23         C  0.15050655  0.36899193  0.97982390    -0.00600
C24         C  0.14907064  0.37531836  0.44133677    -0.23400
C25         C  0.17501018  0.35180379  0.43929112    -0.23700
C26         C  0.19123079  0.33055998  0.97628578    -0.00700
H27         H  0.13107451  0.39537065  0.41728474     0.13100
H28         H  0.18111412  0.34954137  0.41323311     0.13200
O29         O  0.25255828  0.27975078  0.30646117    -0.74100
O30         O  0.21662102  0.31430406  0.19533235    -0.74100
O31         O  0.19719531  0.25943811  0.24519840    -0.74200
O32         O  0.27273967  0.33508245  0.25659518    -0.74200
O33         O  0.29379223  0.26670992  0.24228995    -0.74200
O34         O  0.21931040  0.19165871  0.23257737    -0.74100
O35         O  0.23822087  0.24697679  0.18139076    -0.74100
O36         O  0.27475035  0.21255721  0.29260669    -0.74200
Ni37       Ni  0.23405931  0.29968074  0.25136244     1.25400
Ni38       Ni  0.25719197  0.22714328  0.23657585     1.25400
C39         C  0.26928898  0.24009586  0.31789790     0.88100
C40         C  0.22128819  0.28641505  0.16970673     0.88000
C41         C  0.19613403  0.21251448  0.23812829     0.88000
C42         C  0.29580544  0.31292178  0.25155279     0.88200
N43         N  0.08351644  0.04468860  0.24725975    -0.03200
C44         C  0.11170946  0.06862722  0.26701498    -0.00600
C45         C  0.12274734  0.05636436  0.30716193    -0.23400
C46         C  0.10058241  0.02524704  0.31276599    -0.23700
C47         C  0.07686139  0.01861678  0.27582664    -0.00700
H48         H  0.14396834  0.07088326  0.33034692     0.13100
H49         H  0.10109628  0.01055114  0.34095532     0.13200
N50         N  0.43893117  0.41340904  0.26745631    -0.03200
C51         C  0.41252063  0.38676338  0.24516884    -0.00600
C52         C  0.41460655  0.37219174  0.20981730    -0.23400
C53         C  0.44270385  0.39082296  0.20958658    -0.23700
C54         C  0.45732497  0.41549228  0.24510367    -0.00700
H55         H  0.39703376  0.35123548  0.18619489     0.13100
H56         H  0.45146163  0.38720010  0.18586008     0.13200
C57         C  0.04562851  0.43951731  0.27290411    -0.01500
C58         C  0.04664140  0.99202575  0.26999764     0.08200
C59         C  0.51883840  0.01944522  0.26347754    -0.01600
C60         C  0.48973354  0.99450907  0.25586962    -0.01600
C61         C  0.48827171  0.44185874  0.25515396     0.08300
C62         C  0.01620235  0.41462743  0.26106048    -0.01800
Br63       Br  0.01469418  0.34399245  0.24966765    -0.00400
Br64       Br  0.08399005  0.40152541  0.29860845    -0.00500
Br65       Br  0.45146904  0.03302319  0.24121575    -0.00400
Br66       Br  0.52130765  0.09082572  0.27036917    -0.00400
C67         C  0.35413305  0.39571194  0.22729298    -0.01500
C68         C  0.38351539  0.37636374  0.25372078     0.08200
C69         C  0.38359529  0.33990413  0.28224599    -0.01600
C70         C  0.35472187  0.32209401  0.28357756    -0.01600
C71         C  0.32551969  0.34002693  0.25613700     0.08300
C72         C  0.32540397  0.37820465  0.22905711    -0.01800
Br73       Br  0.28587835  0.40325544  0.19148478    -0.00400
Br74       Br  0.35269857  0.44345850  0.18599287    -0.00500
Br75       Br  0.35501594  0.27120371  0.32204045    -0.00400
Br76       Br  0.42243024  0.30860437  0.31589356    -0.00400
C77         C  0.13106357  0.15690789  0.26921126    -0.01500
C78         C  0.12703151  0.10908213  0.25162100     0.08200
C79         C  0.14221027  0.09894272  0.22516990    -0.01600
C80         C  0.16140801  0.13557178  0.21690073    -0.01600
C81         C  0.16887115  0.18082167  0.23848166     0.08300
C82         C  0.15263512  0.19188570  0.26392714    -0.01800
Br83       Br  0.16136974  0.25235461  0.29511755    -0.00400
Br84       Br  0.10787430  0.17416537  0.30233850    -0.00500
Br85       Br  0.17699166  0.12269133  0.17530033    -0.00400
Br86       Br  0.14095808  0.03321846  0.20398338    -0.00400
C87         C  0.20196549  0.35107053  0.11363556    -0.01500
C88         C  0.20751175  0.30031651  0.12617939     0.08200
C89         C  0.20047327  0.26310489  0.09642944    -0.01600
C90         C  0.18899059  0.27646802  0.05564933    -0.01600
C91         C  0.18654235  0.32723686  0.04364019     0.08300
C92         C  0.19387365  0.36425320  0.07327032    -0.01800
Br93       Br  0.19673765  0.43360909  0.06016321    -0.02000
Br94       Br  0.20406067  0.40437631  0.15017509    -0.00500
Br95       Br  0.17491565  0.22418143  0.01665754    -0.00400
Br96       Br  0.20414962  0.19276871  0.11011783    -0.00400
C97         C  0.24240185  0.22103168  0.47176074    -0.01500
C98         C  0.27242072  0.23464754  0.49997826     0.08200
C99         C  0.27555296  0.27962544  0.02138467    -0.01600
C100        C  0.24932903  0.31144104  0.01311434    -0.01600
C101        C  0.21942618  0.29802042  0.98452173     0.08300
C102        C  0.21651326  0.25368652  0.46246792    -0.01800
Br103      Br  0.17669140  0.23575663  0.42024121    -0.00400
Br104      Br  0.23487054  0.15444863  0.45063173    -0.00500
Br105      Br  0.25565305  0.37580848  0.03805078    -0.00400
Br106      Br  0.31573766  0.29847124  0.06253609    -0.00400
C107        C  0.29281949  0.16098352  0.41291651    -0.01500
C108        C  0.30477097  0.19753279  0.44293297     0.08200
C109        C  0.30603016  0.24803678  0.43122667    -0.01600
C110        C  0.29553433  0.26161347  0.39059655    -0.01600
C111        C  0.28208100  0.22541822  0.36082230     0.08300
C112        C  0.28053617  0.17505650  0.37229958    -0.01800
Br113      Br  0.25891035  0.12537446  0.33270246    -0.00400
Br114      Br  0.29119690  0.09147342  0.42647080    -0.00500
Br115      Br  0.30132367  0.32981268  0.37606994    -0.00400
Br116      Br  0.32393479  0.29922234  0.47044674    -0.00400
C117        C  0.05008379  0.08003219  0.18037092    -0.01500
C118        C  0.06680106  0.03966937  0.20449757     0.08200
C119        C  0.06726470  0.99346465  0.18620970    -0.01600
C120        C  0.05090027  0.98725403  0.14500954    -0.01600
C121        C  0.03345502  0.02711655  0.12112688     0.08300
C122        C  0.03319530  0.07361728  0.13900136    -0.01800
Br123      Br  0.50857525  0.12811833  0.10715208    -0.00400
Br124      Br  0.05028308  0.14446178  0.20324364    -0.00500
Br125      Br  0.05490681  0.42464986  0.12112587    -0.00400
Br126      Br  0.09365333  0.43975561  0.21630899    -0.00400
C127        C  0.42964860  0.46835222  0.31755467    -0.01500
C128        C  0.44754340  0.43108689  0.30799386     0.08200
C129        C  0.47430493  0.41092328  0.33907549    -0.01600
C130        C  0.48370175  0.42886381  0.37806998    -0.01600
C131        C  0.46563166  0.46517240  0.38740870     0.08300
C132        C  0.43848037  0.98469406  0.35721573    -0.01800
Br133      Br  0.41294480  0.03269209  0.37085081    -0.00400
Br134      Br  0.39341718  0.99863167  0.27729414    -0.00500
Br135      Br  0.52196279  0.40383032  0.41887313    -0.00400
Br136      Br  0.49671701  0.35469704  0.33044617    -0.00400
C137        C  0.08108401  0.38285597  0.01373990    -0.01500
C138        C  0.07771103  0.43578044  0.01292425     0.08200
C139        C  0.10145987  0.46567558  0.00668226    -0.01600
C140        C  0.12371840  0.44390584  0.99361834    -0.01600
C141        C  0.12675075  0.39144481  0.99378994     0.08300
C142        C  0.10532309  0.36114952  0.00389316    -0.01800
Br143      Br  0.10553965  0.28980271  0.99763755    -0.00400
Br144      Br  0.05303601  0.33821775  0.02773304    -0.00500
Br145      Br  0.14845305  0.48716737  0.97283339    -0.00400
Br146      Br  0.10622106  0.03632557  0.51887464    -0.00400
C147        C  0.36309846  0.07193771  0.50419289    -0.01500
C148        C  0.36054186  0.12391004  0.49565962     0.08200
C149        C  0.38240402  0.14684476  0.48169786    -0.01600
C150        C  0.40605372  0.11845368  0.47565492    -0.01600
C151        C  0.41143963  0.06801289  0.48927469     0.08300
C152        C  0.38857481  0.04430520  0.50182529    -0.01800
Br153      Br  0.39123624  0.47432137  0.51718399    -0.00400
Br154      Br  0.33217373  0.03817095  0.52099568    -0.00500
Br155      Br  0.42951878  0.14992073  0.94670370    -0.00400
Br156      Br  0.38411121  0.21837252  0.47703458    -0.00400
O157        O  0.48725164  0.02304378  0.94089500    -0.74100
O158        O  0.02151064  0.05158157  0.55304626    -0.74100
O159        O  0.04290375  0.50612721  0.00201282    -0.74200
O160        O  0.46516833  0.06880912  0.99187474    -0.74200
O161        O  0.44549630  0.99555514  0.50038759    -0.74200
O162        O  0.02573951  0.43431119  0.51755759    -0.74100
O163        O  0.00046066  0.48044612  0.56460361    -0.74100
O164        O  0.47097726  0.44832250  0.95397285    -0.74200
Ni165      Ni  0.00475750  0.04010548  0.99652189     1.25400
Ni166      Ni  0.48490345  0.46216216  0.50961099     1.25400
C167        C  0.47460875  0.48005435  0.92932753     0.88100
C168        C  0.01721376  0.01996662  0.57742725     0.88000
C169        C  0.04762010  0.45992270  0.51177044     0.88000
C170        C  0.44196935  0.04264860  0.99356980     0.88200
N171        N  0.31400672  0.18419476  0.98484647    -0.03200
C172        C  0.33839600  0.15414219  0.00789906    -0.00600
C173        C  0.33974220  0.15257341  0.54660788    -0.23400
C174        C  0.31520875  0.18076796  0.54765864    -0.23700
C175        C  0.29998647  0.20033489  0.00988439    -0.00700
H176        H  0.35656203  0.13196742  0.57145437     0.13100
H177        H  0.30914224  0.18664360  0.57341515     0.13200
N178        N  0.17644568  0.34125629  0.50176128    -0.03200
C179        C  0.15050682  0.36899194  0.47982402    -0.00600
C180        C  0.14907035  0.37531836  0.94133668    -0.23400
C181        C  0.17500979  0.35180383  0.93929092    -0.23700
C182        C  0.19123110  0.33055999  0.47628607    -0.00700
H183        H  0.13107395  0.39537095  0.91728436     0.13100
H184        H  0.18111374  0.34954140  0.91323250     0.13200
O185        O  0.25255839  0.27975091  0.80646138    -0.74100
O186        O  0.21662114  0.31430420  0.69533252    -0.74100
O187        O  0.19719537  0.25943819  0.74519857    -0.74200
O188        O  0.27273975  0.33508257  0.75659538    -0.74200
O189        O  0.29379230  0.26671007  0.74229009    -0.74200
O190        O  0.21931048  0.19165881  0.73257756    -0.74100
O191        O  0.23822092  0.24697684  0.68139093    -0.74100
O192        O  0.27475046  0.21255736  0.79260688    -0.74200
Ni193      Ni  0.23405939  0.29968086  0.75136263     1.25400
Ni194      Ni  0.25719205  0.22714340  0.73657603     1.25400
C195        C  0.26928911  0.24009601  0.81789811     0.88100
C196        C  0.22128827  0.28641515  0.66970691     0.88000
C197        C  0.19613409  0.21251455  0.73812846     0.88000
C198        C  0.29580549  0.31292193  0.75155292     0.88200
N199        N  0.08351644  0.04468876  0.74725986    -0.03200
C200        C  0.11170944  0.06862741  0.76701515    -0.00600
C201        C  0.12274727  0.05636467  0.80716215    -0.23400
C202        C  0.10058230  0.02524734  0.81276617    -0.23700
C203        C  0.07686135  0.01861701  0.77582676    -0.00700
H204        H  0.14396806  0.07088351  0.83034697     0.13100
H205        H  0.10109610  0.01055157  0.84095531     0.13200
N206        N  0.43893107  0.41340951  0.76745608    -0.03200
C207        C  0.41252051  0.38676383  0.74516870    -0.00600
C208        C  0.41460633  0.37219220  0.70981709    -0.23400
C209        C  0.44270359  0.39082351  0.70958625    -0.23700
C210        C  0.45732478  0.41549282  0.74510333    -0.00700
H211        H  0.39703356  0.35123597  0.68619478     0.13100
H212        H  0.45146129  0.38720069  0.68585967     0.13200
C213        C  0.04562866  0.43951711  0.77290426    -0.01500
C214        C  0.04664136  0.99202601  0.76999772     0.08200
C215        C  0.51883843  0.01944481  0.76347749    -0.01600
C216        C  0.48973362  0.99450855  0.75586971    -0.01600
C217        C  0.48827154  0.44185921  0.75515361     0.08300
C218        C  0.01620254  0.41462712  0.76106076    -0.01800
Br219      Br  0.01469448  0.34399213  0.74966807    -0.00400
Br220      Br  0.08399030  0.40152540  0.79860856    -0.00500
Br221      Br  0.45146908  0.03302253  0.74121584    -0.00400
Br222      Br  0.52130757  0.09082535  0.77036893    -0.00400
C223        C  0.35413296  0.39571239  0.72729304    -0.01500
C224        C  0.38351533  0.37636417  0.75372077     0.08200
C225        C  0.38359530  0.33990446  0.78224595    -0.01600
C226        C  0.35472191  0.32209426  0.78357757    -0.01600
C227        C  0.32551971  0.34002714  0.75613704     0.08300
C228        C  0.32540392  0.37820491  0.72905718    -0.01800
Br229      Br  0.28587825  0.40325557  0.69148494    -0.00400
Br230      Br  0.35269839  0.44345919  0.68599306    -0.00500
Br231      Br  0.35501608  0.27120374  0.82204034    -0.00400
Br232      Br  0.42243027  0.30860457  0.81589339    -0.00400
C233        C  0.13106353  0.15690807  0.76921130    -0.01500
C234        C  0.12703155  0.10908224  0.75162118     0.08200
C235        C  0.14221042  0.09894267  0.72517023    -0.01600
C236        C  0.16140816  0.13557170  0.71690102    -0.01600
C237        C  0.16887122  0.18082170  0.73848182     0.08300
C238        C  0.15263508  0.19188585  0.76392715    -0.01800
Br239      Br  0.16136952  0.25235490  0.79511736    -0.00400
Br240      Br  0.10787414  0.17416576  0.80233836    -0.00500
Br241      Br  0.17699193  0.12269101  0.67530079    -0.00400
Br242      Br  0.14095833  0.03321827  0.70398402    -0.00400
C243        C  0.20196559  0.35107061  0.61363573    -0.01500
C244        C  0.20751182  0.30031659  0.62617956     0.08200
C245        C  0.20047329  0.26310495  0.59642962    -0.01600
C246        C  0.18899066  0.27646808  0.55564951    -0.01600
C247        C  0.18654251  0.32723691  0.54364039     0.08300
C248        C  0.19387383  0.36425328  0.57327050    -0.01800
Br249      Br  0.19673788  0.43360917  0.56016343    -0.02000
Br250      Br  0.20406067  0.40437639  0.65017520    -0.00500
Br251      Br  0.17491569  0.22418151  0.51665768    -0.00400
Br252      Br  0.20414942  0.19276878  0.61011798    -0.00400
C253        C  0.24240162  0.22103164  0.97176062    -0.01500
C254        C  0.27242047  0.23464753  0.99997819     0.08200
C255        C  0.27555327  0.27962540  0.52138482    -0.01600
C256        C  0.24932934  0.31144099  0.51311462    -0.01600
C257        C  0.21942646  0.29802037  0.48452205     0.08300
C258        C  0.21651302  0.25368651  0.96246767    -0.01800
Br259      Br  0.17669120  0.23575650  0.92024094    -0.00400
Br260      Br  0.23487034  0.15444852  0.95063175    -0.00500
Br261      Br  0.25565337  0.37580841  0.53805114    -0.00400
Br262      Br  0.31573804  0.29847113  0.56253615    -0.00400
C263        C  0.29281957  0.16098350  0.91291665    -0.01500
C264        C  0.30477094  0.19753276  0.94293314     0.08200
C265        C  0.30603015  0.24803677  0.93122691    -0.01600
C266        C  0.29553439  0.26161352  0.89059681    -0.01600
C267        C  0.28208114  0.22541830  0.86082251     0.08300
C268        C  0.28053637  0.17505654  0.87229973    -0.01800
Br269      Br  0.25891076  0.12537449  0.83270252    -0.00400
Br270      Br  0.29119689  0.09147339  0.92647086    -0.00500
Br271      Br  0.30132356  0.32981285  0.87607031    -0.00400
Br272      Br  0.32393467  0.29922231  0.97044705    -0.00400
C273        C  0.05008377  0.08003228  0.68037100    -0.01500
C274        C  0.06680108  0.03966951  0.70449766     0.08200
C275        C  0.06726473  0.99346479  0.68620980    -0.01600
C276        C  0.05090026  0.98725411  0.64500965    -0.01600
C277        C  0.03345496  0.02711659  0.62112698     0.08300
C278        C  0.03319524  0.07361733  0.63900145    -0.01800
Br279      Br  0.50857518  0.12811821  0.60715206    -0.00400
Br280      Br  0.05028308  0.14446189  0.70324370    -0.00500
Br281      Br  0.05490694  0.42464995  0.62112578    -0.00400
Br282      Br  0.09365328  0.43975564  0.71630886    -0.00400
C283        C  0.42964869  0.46835270  0.81755456    -0.01500
C284        C  0.44754341  0.43108734  0.80799365     0.08200
C285        C  0.47430496  0.41092365  0.83907520    -0.01600
C286        C  0.48370187  0.42886409  0.87806973    -0.01600
C287        C  0.46563188  0.46517276  0.88740854     0.08300
C288        C  0.43848015  0.98469355  0.85721589    -0.01800
Br289      Br  0.41294441  0.03269135  0.87085088    -0.00400
Br290      Br  0.39341718  0.99863133  0.77729419    -0.00500
Br291      Br  0.52196280  0.40383020  0.91887282    -0.00400
Br292      Br  0.49671691  0.35469739  0.83044568    -0.00400
C293        C  0.08108413  0.38285607  0.51373973    -0.01500
C294        C  0.07771113  0.43578054  0.51292402     0.08200
C295        C  0.10145999  0.46567566  0.50668203    -0.01600
C296        C  0.12371861  0.44390586  0.49361828    -0.01600
C297        C  0.12675096  0.39144486  0.49378995     0.08300
C298        C  0.10532326  0.36114959  0.50389309    -0.01800
Br299      Br  0.10553981  0.28980279  0.49763745    -0.00400
Br300      Br  0.05303612  0.33821782  0.52773284    -0.00500
Br301      Br  0.14845329  0.48716729  0.47283332    -0.00400
Br302      Br  0.10622116  0.03632570  0.01887426    -0.00400
C303        C  0.36309840  0.07193765  0.00419327    -0.01500
C304        C  0.36054176  0.12390997  0.99565992     0.08200
C305        C  0.38240390  0.14684468  0.98169811    -0.01600
C306        C  0.40605357  0.11845359  0.97565511    -0.01600
C307        C  0.41143952  0.06801282  0.98927498     0.08300
C308        C  0.38857476  0.04430516  0.00182568    -0.01800
Br309      Br  0.39123626  0.47432142  0.01718362    -0.00400
Br310      Br  0.33217360  0.03817084  0.02099591    -0.00500
Br311      Br  0.42951898  0.14992079  0.44670355    -0.00400
Br312      Br  0.38411109  0.21837245  0.97703471    -0.00400
O313        O  0.48725163  0.52304378  0.44089494    -0.74100
O314        O  0.02151065  0.55158157  0.05304619    -0.74100
O315        O  0.04290375  0.00612720  0.50201290    -0.74200
O316        O  0.46516829  0.56880907  0.49187468    -0.74200
O317        O  0.44549631  0.49555507  0.00038762    -0.74200
O318        O  0.02573954  0.93431118  0.01755771    -0.74100
O319        O  0.00046064  0.98044611  0.06460367    -0.74100
O320        O  0.47097724  0.94832255  0.45397283    -0.74200
Ni321      Ni  0.00475742  0.54010552  0.49652180     1.25400
Ni322      Ni  0.48490348  0.96216219  0.00961103     1.25400
C323        C  0.47460876  0.98005438  0.42932752     0.88100
C324        C  0.01721380  0.51996660  0.07742719     0.88000
C325        C  0.04762014  0.95992265  0.01177057     0.88000
C326        C  0.44196931  0.54264855  0.49356975     0.88200
N327        N  0.31400672  0.68419477  0.48484655    -0.03200
C328        C  0.33839600  0.65414217  0.50789913    -0.00600
C329        C  0.33974219  0.65257338  0.04660786    -0.23400
C330        C  0.31520880  0.68076794  0.04765870    -0.23700
C331        C  0.29998645  0.70033487  0.50988448    -0.00700
H332        H  0.35656220  0.63196715  0.07145464     0.13100
H333        H  0.30914233  0.68664360  0.07341521     0.13200
N334        N  0.17644569  0.84125625  0.00176126    -0.03200
C335        C  0.15050678  0.86899187  0.97982400    -0.00600
C336        C  0.14907032  0.87531824  0.44133673    -0.23400
C337        C  0.17500980  0.85180376  0.43929083    -0.23700
C338        C  0.19123106  0.83055990  0.97628600    -0.00700
H339        H  0.13107381  0.89537087  0.41728430     0.13100
H340        H  0.18111358  0.84954142  0.41323319     0.13200
O341        O  0.25255838  0.77975085  0.30646133    -0.74100
O342        O  0.21662110  0.81430413  0.19533247    -0.74100
O343        O  0.19719538  0.75943817  0.24519852    -0.74200
O344        O  0.27273971  0.83508257  0.25659533    -0.74200
O345        O  0.29379230  0.76671008  0.24229008    -0.74200
O346        O  0.21931050  0.69165879  0.23257754    -0.74100
O347        O  0.23822092  0.74697683  0.18139091    -0.74100
O348        O  0.27475045  0.71255731  0.29260686    -0.74200
Ni349      Ni  0.23405938  0.79968082  0.25136257     1.25400
Ni350      Ni  0.25719205  0.72714341  0.23657601     1.25400
C351        C  0.26928909  0.74009594  0.31789809     0.88100
C352        C  0.22128826  0.78641512  0.16970687     0.88000
C353        C  0.19613411  0.71251454  0.23812843     0.88000
C354        C  0.29580549  0.81292193  0.25155295     0.88200
N355        N  0.08351645  0.54468869  0.24725981    -0.03200
C356        C  0.11170941  0.56862746  0.26701511    -0.00600
C357        C  0.12274726  0.55636471  0.30716211    -0.23400
C358        C  0.10058231  0.52524729  0.31276613    -0.23700
C359        C  0.07686137  0.51861691  0.27582669    -0.00700
H360        H  0.14396801  0.57088353  0.33034689     0.13100
H361        H  0.10109612  0.51055157  0.34095515     0.13200
N362        N  0.43893104  0.91340952  0.26745611    -0.03200
C363        C  0.41252047  0.88676385  0.24516873    -0.00600
C364        C  0.41460633  0.87219226  0.20981717    -0.23400
C365        C  0.44270352  0.89082355  0.20958633    -0.23700
C366        C  0.45732473  0.91549288  0.24510334    -0.00700
H367        H  0.39703335  0.85123573  0.18619458     0.13100
H368        H  0.45146136  0.88720065  0.18585938     0.13200
C369        C  0.04562862  0.93951712  0.27290420    -0.01500
C370        C  0.04664136  0.49202594  0.26999768     0.08200
C371        C  0.51883848  0.51944482  0.26347754    -0.01600
C372        C  0.48973367  0.49450856  0.25586976    -0.01600
C373        C  0.48827149  0.94185925  0.25515362     0.08300
C374        C  0.01620249  0.91462714  0.26106076    -0.01800
Br375      Br  0.01469443  0.84399208  0.24966820    -0.00400
Br376      Br  0.08399024  0.90152539  0.29860854    -0.00500
Br377      Br  0.45146906  0.53302243  0.24121579    -0.00400
Br378      Br  0.52130767  0.59082534  0.27036912    -0.00400
C379        C  0.35413292  0.89571236  0.22729311    -0.01500
C380        C  0.38351530  0.87636419  0.25372083     0.08200
C381        C  0.38359529  0.83990448  0.28224602    -0.01600
C382        C  0.35472190  0.82209424  0.28357765    -0.01600
C383        C  0.32551970  0.84002715  0.25613715     0.08300
C384        C  0.32540390  0.87820493  0.22905731    -0.01800
Br385      Br  0.28587822  0.90325567  0.19148512    -0.00400
Br386      Br  0.35269830  0.94345898  0.18599299    -0.00500
Br387      Br  0.35501606  0.77120367  0.32204040    -0.00400
Br388      Br  0.42243028  0.80860457  0.31589334    -0.00400
C389        C  0.13106349  0.65690815  0.26921125    -0.01500
C390        C  0.12703152  0.60908230  0.25162115     0.08200
C391        C  0.14221042  0.59894271  0.22517024    -0.01600
C392        C  0.16140814  0.63557173  0.21690101    -0.01600
C393        C  0.16887123  0.68082171  0.23848181     0.08300
C394        C  0.15263508  0.69188590  0.26392714    -0.01800
Br395      Br  0.16136956  0.75235496  0.29511734    -0.00400
Br396      Br  0.10787404  0.67416586  0.30233825    -0.00500
Br397      Br  0.17699183  0.62269113  0.17530069    -0.00400
Br398      Br  0.14095848  0.53321827  0.20398420    -0.00400
C399        C  0.20196560  0.85107058  0.11363569    -0.01500
C400        C  0.20751185  0.80031656  0.12617953     0.08200
C401        C  0.20047333  0.76310493  0.09642959    -0.01600
C402        C  0.18899070  0.77646807  0.05564949    -0.01600
C403        C  0.18654255  0.82723691  0.04364036     0.08300
C404        C  0.19387383  0.86425327  0.07327047    -0.01800
Br405      Br  0.19673781  0.93360919  0.06016342    -0.02000
Br406      Br  0.20406074  0.90437633  0.15017521    -0.00500
Br407      Br  0.17491561  0.72418157  0.01665766    -0.00400
Br408      Br  0.20414955  0.69276877  0.11011801    -0.00400
C409        C  0.24240159  0.72103155  0.47176067    -0.01500
C410        C  0.27242043  0.73464743  0.49997829     0.08200
C411        C  0.27555322  0.77962531  0.02138483    -0.01600
C412        C  0.24932928  0.81144086  0.01311459    -0.01600
C413        C  0.21942642  0.79802025  0.98452199     0.08300
C414        C  0.21651297  0.75368641  0.46246770    -0.01800
Br415      Br  0.17669117  0.73575650  0.42024091    -0.00400
Br416      Br  0.23487037  0.65444849  0.45063171    -0.00500
Br417      Br  0.25565327  0.87580826  0.03805110    -0.00400
Br418      Br  0.31573797  0.79847116  0.06253612    -0.00400
C419        C  0.29281951  0.66098352  0.41291672    -0.01500
C420        C  0.30477090  0.69753277  0.44293322     0.08200
C421        C  0.30603007  0.74803679  0.43122696    -0.01600
C422        C  0.29553430  0.76161351  0.39059683    -0.01600
C423        C  0.28208109  0.72541826  0.36082253     0.08300
C424        C  0.28053631  0.67505652  0.37229979    -0.01800
Br425      Br  0.25891072  0.62537439  0.33270263    -0.00400
Br426      Br  0.29119684  0.59147341  0.42647092    -0.00500
Br427      Br  0.30132348  0.82981279  0.37607027    -0.00400
Br428      Br  0.32393458  0.79922235  0.47044709    -0.00400
C429        C  0.05008382  0.58003222  0.18037095    -0.01500
C430        C  0.06680111  0.53966944  0.20449761     0.08200
C431        C  0.06726476  0.49346470  0.18620975    -0.01600
C432        C  0.05090027  0.48725404  0.14500960    -0.01600
C433        C  0.03345500  0.52711655  0.12112693     0.08300
C434        C  0.03319531  0.57361730  0.13900140    -0.01800
Br435      Br  0.50857511  0.62811813  0.10715206    -0.00400
Br436      Br  0.05028298  0.64446175  0.20324368    -0.00500
Br437      Br  0.05490691  0.92464993  0.12112579    -0.00400
Br438      Br  0.09365321  0.93975553  0.21630893    -0.00400
C439        C  0.42964871  0.96835275  0.31755457    -0.01500
C440        C  0.44754340  0.93108734  0.30799366     0.08200
C441        C  0.47430494  0.91092362  0.33907522    -0.01600
C442        C  0.48370183  0.92886403  0.37806975    -0.01600
C443        C  0.46563187  0.96517276  0.38740855     0.08300
C444        C  0.43848014  0.48469354  0.35721581    -0.01800
Br445      Br  0.41294445  0.53269149  0.37085078    -0.00400
Br446      Br  0.39341709  0.49863109  0.27729414    -0.00500
Br447      Br  0.52196280  0.90383017  0.41887284    -0.00400
Br448      Br  0.49671697  0.85469748  0.33044565    -0.00400
C449        C  0.08108409  0.88285601  0.01373974    -0.01500
C450        C  0.07771116  0.93578048  0.01292414     0.08200
C451        C  0.10146005  0.96567559  0.00668219    -0.01600
C452        C  0.12371862  0.94390579  0.99361837    -0.01600
C453        C  0.12675093  0.89144476  0.99378996     0.08300
C454        C  0.10532319  0.86114952  0.00389307    -0.01800
Br455      Br  0.10553972  0.78980271  0.99763751    -0.00400
Br456      Br  0.05303599  0.83821780  0.02773276    -0.00500
Br457      Br  0.14845332  0.98716719  0.97283342    -0.00400
Br458      Br  0.10622103  0.53632579  0.51887406    -0.00400
C459        C  0.36309839  0.57193760  0.50419329    -0.01500
C460        C  0.36054176  0.62390994  0.49565999     0.08200
C461        C  0.38240390  0.64684465  0.48169819    -0.01600
C462        C  0.40605355  0.61845356  0.47565514    -0.01600
C463        C  0.41143950  0.56801279  0.48927496     0.08300
C464        C  0.38857476  0.54430511  0.50182570    -0.01800
Br465      Br  0.39123619  0.97432142  0.51718342    -0.00400
Br466      Br  0.33217365  0.53817078  0.52099600    -0.00500
Br467      Br  0.42951895  0.64992064  0.94670344    -0.00400
Br468      Br  0.38411111  0.71837243  0.47703489    -0.00400
O469        O  0.48725182  0.52304403  0.94089487    -0.74100
O470        O  0.02151072  0.55158169  0.55304609    -0.74100
O471        O  0.04290393  0.00612727  0.00201283    -0.74200
O472        O  0.46516848  0.56880917  0.99187466    -0.74200
O473        O  0.44549616  0.49555503  0.50038781    -0.74200
O474        O  0.02573936  0.93431110  0.51755781    -0.74100
O475        O  0.00046051  0.98044609  0.56460381    -0.74100
O476        O  0.47097706  0.94832233  0.95397307    -0.74200
Ni477      Ni  0.00475730  0.54010540  0.99652190     1.25400
Ni478      Ni  0.48490359  0.96216226  0.50961080     1.25400
C479        C  0.47460854  0.98005410  0.92932771     0.88100
C480        C  0.01721385  0.51996670  0.57742706     0.88000
C481        C  0.04761995  0.95992257  0.51177065     0.88000
C482        C  0.44196948  0.54264861  0.99356963     0.88200
N483        N  0.31400687  0.68419473  0.98484635    -0.03200
C484        C  0.33839621  0.65414220  0.00789888    -0.00600
C485        C  0.33974188  0.65257332  0.54660808    -0.23400
C486        C  0.31520845  0.68076787  0.54765872    -0.23700
C487        C  0.29998673  0.70033488  0.00988438    -0.00700
H488        H  0.35656175  0.63196716  0.57145478     0.13100
H489        H  0.30914178  0.68664360  0.57341557     0.13200
N490        N  0.17644541  0.84125620  0.50176112    -0.03200
C491        C  0.15050651  0.86899186  0.47982393    -0.00600
C492        C  0.14907064  0.87531819  0.94133684    -0.23400
C493        C  0.17501011  0.85180370  0.93929105    -0.23700
C494        C  0.19123074  0.83055990  0.47628582    -0.00700
H495        H  0.13107412  0.89537086  0.91728432     0.13100
H496        H  0.18111400  0.84954126  0.91323306     0.13200
O497        O  0.25255829  0.77975072  0.80646113    -0.74100
O498        O  0.21662103  0.81430404  0.69533231    -0.74100
O499        O  0.19719529  0.75943809  0.74519834    -0.74200
O500        O  0.27273967  0.83508242  0.75659517    -0.74200
O501        O  0.29379224  0.76670992  0.74228989    -0.74200
O502        O  0.21931040  0.69165870  0.73257733    -0.74100
O503        O  0.23822085  0.74697673  0.68139074    -0.74100
O504        O  0.27475037  0.71255718  0.79260665    -0.74200
Ni505      Ni  0.23405931  0.79968071  0.75136240     1.25400
Ni506      Ni  0.25719197  0.72714327  0.73657581     1.25400
C507        C  0.26928902  0.74009583  0.81789787     0.88100
C508        C  0.22128818  0.78641501  0.66970671     0.88000
C509        C  0.19613402  0.71251446  0.73812824     0.88000
C510        C  0.29580543  0.81292177  0.75155276     0.88200
N511        N  0.08351641  0.54468863  0.74725969    -0.03200
C512        C  0.11170944  0.56862726  0.76701491    -0.00600
C513        C  0.12274735  0.55636438  0.80716187    -0.23400
C514        C  0.10058244  0.52524701  0.81276597    -0.23700
C515        C  0.07686140  0.51861679  0.77582660    -0.00700
H516        H  0.14396831  0.57088324  0.83034678     0.13100
H517        H  0.10109633  0.51055120  0.84095505     0.13200
N518        N  0.43893113  0.91340911  0.76745632    -0.03200
C519        C  0.41252057  0.88676344  0.74516887    -0.00600
C520        C  0.41460652  0.87219174  0.70981738    -0.23400
C521        C  0.44270379  0.89082289  0.70958659    -0.23700
C522        C  0.45732492  0.91549228  0.74510366    -0.00700
H523        H  0.39703357  0.85123528  0.68619476     0.13100
H524        H  0.45146156  0.88719998  0.68586008     0.13200
C525        C  0.04562855  0.93951738  0.77290417    -0.01500
C526        C  0.04664142  0.49202574  0.76999767     0.08200
C527        C  0.51883842  0.51944520  0.76347752    -0.01600
C528        C  0.48973357  0.49450903  0.75586962    -0.01600
C529        C  0.48827166  0.94185873  0.75515391     0.08300
C530        C  0.01620240  0.91462746  0.76106052    -0.01800
Br531      Br  0.01469428  0.84399244  0.74966776    -0.00400
Br532      Br  0.08399014  0.90152557  0.79860857    -0.00500
Br533      Br  0.45146906  0.53302313  0.74121586    -0.00400
Br534      Br  0.52130771  0.59082568  0.77036926    -0.00400
C535        C  0.35413299  0.89571202  0.72729298    -0.01500
C536        C  0.38351534  0.87636386  0.75372083     0.08200
C537        C  0.38359524  0.83990424  0.78224604    -0.01600
C538        C  0.35472183  0.82209409  0.78357760    -0.01600
C539        C  0.32551966  0.84002695  0.75613698     0.08300
C540        C  0.32540392  0.87820465  0.72905708    -0.01800
Br541      Br  0.28587830  0.90325533  0.69148471    -0.00400
Br542      Br  0.35269848  0.94345862  0.68599289    -0.00500
Br543      Br  0.35501595  0.77120370  0.82204047    -0.00400
Br544      Br  0.42243019  0.80860441  0.81589366    -0.00400
C545        C  0.13106356  0.65690791  0.76921121    -0.01500
C546        C  0.12703150  0.60908216  0.75162094     0.08200
C547        C  0.14221027  0.59894272  0.72516988    -0.01600
C548        C  0.16140802  0.63557175  0.71690071    -0.01600
C549        C  0.16887117  0.68082164  0.73848164     0.08300
C550        C  0.15263514  0.69188569  0.76392713    -0.01800
Br551      Br  0.16136983  0.75235452  0.79511763    -0.00400
Br552      Br  0.10787424  0.67416540  0.80233841    -0.00500
Br553      Br  0.17699162  0.62269130  0.67530029    -0.00400
Br554      Br  0.14095804  0.53321845  0.70398341    -0.00400
C555        C  0.20196546  0.85107048  0.61363558    -0.01500
C556        C  0.20751176  0.80031646  0.62617939     0.08200
C557        C  0.20047328  0.76310483  0.59642944    -0.01600
C558        C  0.18899057  0.77646798  0.55564934    -0.01600
C559        C  0.18654232  0.82723682  0.54364022     0.08300
C560        C  0.19387365  0.86425316  0.57327035    -0.01800
Br561      Br  0.19673768  0.93360905  0.56016327    -0.02000
Br562      Br  0.20406073  0.90437627  0.65017515    -0.00500
Br563      Br  0.17491551  0.72418144  0.51665751    -0.00400
Br564      Br  0.20414968  0.69276866  0.61011782    -0.00400
C565        C  0.24240187  0.72103155  0.97176075    -0.01500
C566        C  0.27242073  0.73464745  0.99997829     0.08200
C567        C  0.27555288  0.77962534  0.52138477    -0.01600
C568        C  0.24932895  0.81144093  0.51311440    -0.01600
C569        C  0.21942612  0.79802029  0.48452177     0.08300
C570        C  0.21651325  0.75368637  0.96246789    -0.01800
Br571      Br  0.17669140  0.73575633  0.92024123    -0.00400
Br572      Br  0.23487061  0.65444846  0.95063178    -0.00500
Br573      Br  0.25565292  0.87580850  0.53805066    -0.00400
Br574      Br  0.31573755  0.79847122  0.56253622    -0.00400
C575        C  0.29281951  0.66098347  0.91291650    -0.01500
C576        C  0.30477097  0.69753271  0.94293299     0.08200
C577        C  0.30603016  0.74803671  0.93122670    -0.01600
C578        C  0.29553436  0.76161343  0.89059657    -0.01600
C579        C  0.28208106  0.72541818  0.86082230     0.08300
C580        C  0.28053620  0.67505648  0.87229957    -0.01800
Br581      Br  0.25891040  0.62537443  0.83270244    -0.00400
Br582      Br  0.29119693  0.59147335  0.92647073    -0.00500
Br583      Br  0.30132356  0.82981270  0.87607000    -0.00400
Br584      Br  0.32393469  0.79922229  0.97044679    -0.00400
C585        C  0.05008378  0.58003223  0.68037089    -0.01500
C586        C  0.06680102  0.53966941  0.70449751     0.08200
C587        C  0.06726466  0.49346469  0.68620964    -0.01600
C588        C  0.05090023  0.48725409  0.64500948    -0.01600
C589        C  0.03345499  0.52711664  0.62112681     0.08300
C590        C  0.03319531  0.57361738  0.63900132    -0.01800
Br591      Br  0.50857509  0.62811806  0.60715213    -0.00400
Br592      Br  0.05028298  0.64446173  0.70324370    -0.00500
Br593      Br  0.05490688  0.92464993  0.62112595    -0.00400
Br594      Br  0.09365329  0.93975575  0.71630910    -0.00400
C595        C  0.42964862  0.96835233  0.81755472    -0.01500
C596        C  0.44754339  0.93108699  0.80799387     0.08200
C597        C  0.47430491  0.91092334  0.83907550    -0.01600
C598        C  0.48370175  0.92886382  0.87807001    -0.01600
C599        C  0.46563167  0.96517239  0.88740876     0.08300
C600        C  0.43848037  0.48469404  0.85721571    -0.01800
Br601      Br  0.41294478  0.53269211  0.87085069    -0.00400
Br602      Br  0.39341708  0.49863156  0.77729414    -0.00500
Br603      Br  0.52196281  0.90383028  0.91887312    -0.00400
Br604      Br  0.49671694  0.85469711  0.83044605    -0.00400
C605        C  0.08108395  0.88285594  0.51373990    -0.01500
C606        C  0.07771098  0.93578041  0.51292425     0.08200
C607        C  0.10145984  0.96567553  0.50668228    -0.01600
C608        C  0.12371836  0.94390576  0.49361835    -0.01600
C609        C  0.12675069  0.89144474  0.49378994     0.08300
C610        C  0.10532302  0.86114947  0.50389315    -0.01800
Br611      Br  0.10553963  0.78980266  0.49763770    -0.00400
Br612      Br  0.05303602  0.83821772  0.52773314    -0.00500
Br613      Br  0.14845296  0.98716722  0.47283329    -0.00400
Br614      Br  0.10622101  0.53632565  0.01887454    -0.00400
C615        C  0.36309853  0.57193768  0.00419301    -0.01500
C616        C  0.36054190  0.62391000  0.99565965     0.08200
C617        C  0.38240404  0.64684470  0.98169783    -0.01600
C618        C  0.40605372  0.61845360  0.97565488    -0.01600
C619        C  0.41143965  0.56801284  0.98927474     0.08300
C620        C  0.38857488  0.54430517  0.00182542    -0.01800
Br621      Br  0.39123618  0.97432142  0.01718390    -0.00400
Br622      Br  0.33217383  0.53817095  0.02099588    -0.00500
Br623      Br  0.42951866  0.64992059  0.44670356    -0.00400
Br624      Br  0.38411116  0.71837244  0.97703439    -0.00400
O625        O  0.98725167  0.02304396  0.44089500    -0.74100
O626        O  0.52151066  0.05158161  0.05304622    -0.74100
O627        O  0.54290373  0.50612716  0.50201284    -0.74200
O628        O  0.96516833  0.06880921  0.49187478    -0.74200
O629        O  0.94549631  0.99555515  0.00038760    -0.74200
O630        O  0.52573955  0.43431111  0.01755767    -0.74100
O631        O  0.50046066  0.48044602  0.06460365    -0.74100
O632        O  0.97097721  0.44832254  0.45397283    -0.74200
Ni633      Ni  0.50475747  0.04010548  0.49652182     1.25400
Ni634      Ni  0.98490345  0.46216222  0.00961097     1.25400
C635        C  0.97460874  0.48005435  0.42932752     0.88100
C636        C  0.51721381  0.01996667  0.07742723     0.88000
C637        C  0.54762013  0.45992261  0.01177050     0.88000
C638        C  0.94196933  0.04264868  0.49356980     0.88200
N639        N  0.81400676  0.18419485  0.48484653    -0.03200
C640        C  0.83839605  0.15414230  0.50789912    -0.00600
C641        C  0.83974219  0.15257332  0.04660786    -0.23400
C642        C  0.81520876  0.18076796  0.04765861    -0.23700
C643        C  0.79998652  0.20033501  0.50988445    -0.00700
H644        H  0.85656192  0.13196740  0.07145426     0.13100
H645        H  0.80914228  0.18664366  0.07341512     0.13200
N646        N  0.67644566  0.34125619  0.00176123    -0.03200
C647        C  0.65050674  0.36899177  0.97982396    -0.00600
C648        C  0.64907040  0.37531840  0.44133675    -0.23400
C649        C  0.67500988  0.35180398  0.43929091    -0.23700
C650        C  0.69123106  0.33055996  0.97628598    -0.00700
H651        H  0.63107384  0.39537107  0.41728425     0.13100
H652        H  0.68111374  0.34954164  0.41323293     0.13200
O653        O  0.75255835  0.27975085  0.30646131    -0.74100
O654        O  0.71662107  0.31430411  0.19533246    -0.74100
O655        O  0.69719536  0.25943815  0.24519851    -0.74200
O656        O  0.77273972  0.33508252  0.25659529    -0.74200
O657        O  0.79379230  0.26671001  0.24229006    -0.74200
O658        O  0.71931048  0.19165877  0.23257754    -0.74100
O659        O  0.73822090  0.24697680  0.18139091    -0.74100
O660        O  0.77475044  0.21255731  0.29260686    -0.74200
Ni661      Ni  0.73405936  0.29968080  0.25136256     1.25400
Ni662      Ni  0.75719204  0.22714336  0.23657600     1.25400
C663        C  0.76928907  0.24009595  0.31789807     0.88100
C664        C  0.72128822  0.28641507  0.16970686     0.88000
C665        C  0.69613408  0.21251452  0.23812842     0.88000
C666        C  0.79580549  0.31292187  0.25155289     0.88200
N667        N  0.58351643  0.04468877  0.24725986    -0.03200
C668        C  0.61170940  0.06862753  0.26701516    -0.00600
C669        C  0.62274714  0.05636476  0.30716209    -0.23400
C670        C  0.60058227  0.02524735  0.31276618    -0.23700
C671        C  0.57686135  0.01861698  0.27582673    -0.00700
H672        H  0.64396831  0.07088396  0.33034738     0.13100
H673        H  0.60109606  0.01055171  0.34095515     0.13200
N674        N  0.93893107  0.41340950  0.26745611    -0.03200
C675        C  0.91252052  0.38676383  0.24516870    -0.00600
C676        C  0.91460634  0.37219217  0.20981707    -0.23400
C677        C  0.94270363  0.39082351  0.20958631    -0.23700
C678        C  0.95732480  0.41549280  0.24510339    -0.00700
H679        H  0.89703374  0.35123613  0.18619496     0.13100
H680        H  0.95146136  0.38720070  0.18585978     0.13200
C681        C  0.54562867  0.43951703  0.27290421    -0.01500
C682        C  0.54664134  0.99202600  0.26999769     0.08200
C683        C  0.01883843  0.01944489  0.26347752    -0.01600
C684        C  0.98973362  0.99450864  0.25586975    -0.01600
C685        C  0.98827155  0.44185918  0.25515368     0.08300
C686        C  0.51620255  0.41462706  0.26106080    -0.01800
Br687      Br  0.51469443  0.34399199  0.24966825    -0.00400
Br688      Br  0.58399030  0.40152528  0.29860845    -0.00500
Br689      Br  0.95146903  0.03302254  0.24121580    -0.00400
Br690      Br  0.02130769  0.09082537  0.27036911    -0.00400
C691        C  0.85413298  0.39571236  0.22729306    -0.01500
C692        C  0.88351534  0.37636414  0.25372077     0.08200
C693        C  0.88359531  0.33990437  0.28224590    -0.01600
C694        C  0.85472193  0.32209418  0.28357755    -0.01600
C695        C  0.82551972  0.34002709  0.25613705     0.08300
C696        C  0.82540393  0.37820488  0.22905719    -0.01800
Br697      Br  0.78587828  0.40325547  0.19148485    -0.00400
Br698      Br  0.85269842  0.44345906  0.18599300    -0.00500
Br699      Br  0.85501614  0.27120372  0.32204040    -0.00400
Br700      Br  0.92243028  0.30860444  0.31589328    -0.00400
C701        C  0.63106350  0.15690817  0.26921127    -0.01500
C702        C  0.62703151  0.10908231  0.25162118     0.08200
C703        C  0.64221039  0.09894270  0.22517024    -0.01600
C704        C  0.66140813  0.13557170  0.21690101    -0.01600
C705        C  0.66887121  0.18082170  0.23848179     0.08300
C706        C  0.65263507  0.19188591  0.26392713    -0.01800
Br707      Br  0.66136952  0.25235502  0.29511729    -0.00400
Br708      Br  0.60787402  0.17416597  0.30233822    -0.00500
Br709      Br  0.67699194  0.12269095  0.17530080    -0.00400
Br710      Br  0.64095845  0.03321823  0.20398422    -0.00400
C711        C  0.70196556  0.35107052  0.11363567    -0.01500
C712        C  0.70751179  0.30031650  0.12617952     0.08200
C713        C  0.70047329  0.26310486  0.09642958    -0.01600
C714        C  0.68899070  0.27646799  0.05564948    -0.01600
C715        C  0.68654251  0.32723683  0.04364033     0.08300
C716        C  0.69387382  0.36425318  0.07327045    -0.01800
Br717      Br  0.69673793  0.43360907  0.06016340    -0.02000
Br718      Br  0.70406070  0.40437632  0.15017517    -0.00500
Br719      Br  0.67491575  0.22418144  0.01665768    -0.00400
Br720      Br  0.70414951  0.19276870  0.11011802    -0.00400
C721        C  0.74240168  0.22103175  0.47176064    -0.01500
C722        C  0.77242052  0.23464762  0.49997825     0.08200
C723        C  0.77555322  0.27962542  0.02138475    -0.01600
C724        C  0.74932928  0.31144097  0.01311453    -0.01600
C725        C  0.71942642  0.29802034  0.98452196     0.08300
C726        C  0.71651308  0.25368663  0.46246767    -0.01800
Br727      Br  0.67669129  0.23575673  0.42024088    -0.00400
Br728      Br  0.73487039  0.15444865  0.45063173    -0.00500
Br729      Br  0.75565325  0.37580834  0.03805107    -0.00400
Br730      Br  0.81573794  0.29847124  0.06253608    -0.00400
C731        C  0.79281950  0.16098356  0.41291670    -0.01500
C732        C  0.80477090  0.19753283  0.44293318     0.08200
C733        C  0.80603008  0.24803683  0.43122690    -0.01600
C734        C  0.79553429  0.26161355  0.39059677    -0.01600
C735        C  0.78208106  0.22541829  0.36082250     0.08300
C736        C  0.78053631  0.17505655  0.37229977    -0.01800
Br737      Br  0.75891084  0.12537438  0.33270260    -0.00400
Br738      Br  0.79119680  0.09147346  0.42647093    -0.00500
Br739      Br  0.80132359  0.32981279  0.37607022    -0.00400
Br740      Br  0.82393471  0.29922236  0.47044701    -0.00400
C741        C  0.55008380  0.08003236  0.18037099    -0.01500
C742        C  0.56680108  0.03966956  0.20449766     0.08200
C743        C  0.56726470  0.99346481  0.18620981    -0.01600
C744        C  0.55090021  0.98725413  0.14500967    -0.01600
C745        C  0.53345498  0.02711666  0.12112697     0.08300
C746        C  0.53319531  0.07361744  0.13900143    -0.01800
Br747      Br  0.00857515  0.12811810  0.10715203    -0.00400
Br748      Br  0.55028296  0.14446189  0.20324371    -0.00500
Br749      Br  0.55490703  0.42464992  0.12112578    -0.00400
Br750      Br  0.59365336  0.43975560  0.21630891    -0.00400
C751        C  0.92964869  0.46835263  0.31755459    -0.01500
C752        C  0.94754341  0.43108729  0.30799367     0.08200
C753        C  0.97430495  0.41092358  0.33907521    -0.01600
C754        C  0.98370185  0.42886398  0.37806975    -0.01600
C755        C  0.96563187  0.46517269  0.38740856     0.08300
C756        C  0.93848017  0.98469374  0.35721582    -0.01800
Br757      Br  0.91294445  0.03269164  0.37085079    -0.00400
Br758      Br  0.89341705  0.99863125  0.27729416    -0.00500
Br759      Br  0.02196280  0.40383008  0.41887281    -0.00400
Br760      Br  0.99671692  0.35469735  0.33044565    -0.00400
C761        C  0.58108408  0.38285595  0.01373968    -0.01500
C762        C  0.57771114  0.43578043  0.01292405     0.08200
C763        C  0.60146001  0.46567554  0.00668206    -0.01600
C764        C  0.62371861  0.44390570  0.99361830    -0.01600
C765        C  0.62675091  0.39144468  0.99378991     0.08300
C766        C  0.60532317  0.36114945  0.00389300    -0.01800
Br767      Br  0.60553973  0.28980263  0.99763751    -0.00400
Br768      Br  0.55303606  0.33821774  0.02773278    -0.00500
Br769      Br  0.64845334  0.48716708  0.97283339    -0.00400
Br770      Br  0.60622111  0.03632566  0.51887409    -0.00400
C771        C  0.86309844  0.07193777  0.50419334    -0.01500
C772        C  0.86054180  0.12391009  0.49565999     0.08200
C773        C  0.88240392  0.14684478  0.48169813    -0.01600
C774        C  0.90605359  0.11845368  0.47565515    -0.01600
C775        C  0.91143954  0.06801292  0.48927502     0.08300
C776        C  0.88857479  0.04430526  0.50182576    -0.01800
Br777      Br  0.89123615  0.47432137  0.51718339    -0.00400
Br778      Br  0.83217364  0.03817096  0.52099599    -0.00500
Br779      Br  0.92951894  0.14992073  0.94670345    -0.00400
Br780      Br  0.88411103  0.21837252  0.47703461    -0.00400
O781        O  0.98725189  0.02304404  0.94089493    -0.74100
O782        O  0.52151077  0.05158158  0.55304613    -0.74100
O783        O  0.54290391  0.50612723  0.00201276    -0.74200
O784        O  0.96516851  0.06880922  0.99187467    -0.74200
O785        O  0.94549615  0.99555515  0.50038778    -0.74200
O786        O  0.52573937  0.43431105  0.51755778    -0.74100
O787        O  0.50046057  0.48044601  0.56460382    -0.74100
O788        O  0.97097702  0.44832246  0.95397299    -0.74200
Ni789      Ni  0.50475730  0.04010536  0.99652194     1.25400
Ni790      Ni  0.98490359  0.46216229  0.50961080     1.25400
C791        C  0.97460853  0.48005423  0.92932764     0.88100
C792        C  0.51721385  0.01996662  0.57742708     0.88000
C793        C  0.54761995  0.45992256  0.51177062     0.88000
C794        C  0.94196949  0.04264867  0.99356960     0.88200
N795        N  0.81400687  0.18419475  0.98484630    -0.03200
C796        C  0.83839617  0.15414216  0.00789881    -0.00600
C797        C  0.83974196  0.15257343  0.54660812    -0.23400
C798        C  0.81520851  0.18076807  0.54765876    -0.23700
C799        C  0.79998671  0.20033493  0.00988431    -0.00700
H800        H  0.85656168  0.13196748  0.57145459     0.13100
H801        H  0.80914192  0.18664381  0.57341532     0.13200
N802        N  0.67644549  0.34125637  0.50176113    -0.03200
C803        C  0.65050657  0.36899201  0.47982393    -0.00600
C804        C  0.64907062  0.37531809  0.94133681    -0.23400
C805        C  0.67501012  0.35180374  0.93929102    -0.23700
C806        C  0.69123085  0.33056010  0.47628583    -0.00700
H807        H  0.63107397  0.39537080  0.91728414     0.13100
H808        H  0.68111401  0.34954136  0.91323305     0.13200
O809        O  0.75255827  0.27975080  0.80646112    -0.74100
O810        O  0.71662096  0.31430400  0.69533229    -0.74100
O811        O  0.69719527  0.25943802  0.74519834    -0.74200
O812        O  0.77273962  0.33508240  0.75659506    -0.74200
O813        O  0.79379220  0.26670988  0.74228987    -0.74200
O814        O  0.71931038  0.19165867  0.73257729    -0.74100
O815        O  0.73822082  0.24697676  0.68139071    -0.74100
O816        O  0.77475032  0.21255722  0.79260665    -0.74200
Ni817      Ni  0.73405927  0.29968069  0.75136237     1.25400
Ni818      Ni  0.75719193  0.22714327  0.73657579     1.25400
C819        C  0.76928898  0.24009589  0.81789787     0.88100
C820        C  0.72128814  0.28641504  0.66970669     0.88000
C821        C  0.69613400  0.21251440  0.73812822     0.88000
C822        C  0.79580539  0.31292174  0.75155269     0.88200
N823        N  0.58351639  0.04468860  0.74725971    -0.03200
C824        C  0.61170941  0.06862720  0.76701495    -0.00600
C825        C  0.62274736  0.05636432  0.80716194    -0.23400
C826        C  0.60058241  0.02524691  0.81276599    -0.23700
C827        C  0.57686137  0.01861674  0.77582660    -0.00700
H828        H  0.64396809  0.07088299  0.83034661     0.13100
H829        H  0.60109630  0.01055108  0.84095499     0.13200
N830        N  0.93893114  0.41340916  0.76745629    -0.03200
C831        C  0.91252057  0.38676354  0.74516882    -0.00600
C832        C  0.91460654  0.37219186  0.70981735    -0.23400
C833        C  0.94270379  0.39082299  0.70958662    -0.23700
C834        C  0.95732495  0.41549233  0.74510364    -0.00700
H835        H  0.89703355  0.35123533  0.68619466     0.13100
H836        H  0.95146168  0.38720001  0.68585978     0.13200
C837        C  0.54562852  0.43951735  0.77290411    -0.01500
C838        C  0.54664140  0.99202567  0.76999764     0.08200
C839        C  0.01883841  0.01944521  0.76347754    -0.01600
C840        C  0.98973357  0.99450900  0.75586964    -0.01600
C841        C  0.98827169  0.44185877  0.75515393     0.08300
C842        C  0.51620235  0.41462747  0.76106045    -0.01800
Br843      Br  0.51469421  0.34399246  0.74966773    -0.00400
Br844      Br  0.58399008  0.40152547  0.79860852    -0.00500
Br845      Br  0.95146904  0.03302303  0.74121585    -0.00400
Br846      Br  0.02130771  0.09082572  0.77036922    -0.00400
C847        C  0.85413297  0.39571203  0.72729297    -0.01500
C848        C  0.88351534  0.37636388  0.75372079     0.08200
C849        C  0.88359525  0.33990415  0.78224593    -0.01600
C850        C  0.85472182  0.32209396  0.78357748    -0.01600
C851        C  0.82551964  0.34002690  0.75613692     0.08300
C852        C  0.82540391  0.37820464  0.72905706    -0.01800
Br853      Br  0.78587829  0.40325544  0.69148476    -0.00400
Br854      Br  0.85269843  0.44345853  0.68599282    -0.00500
Br855      Br  0.85501591  0.27120346  0.82204025    -0.00400
Br856      Br  0.92243021  0.30860419  0.81589338    -0.00400
C857        C  0.63106358  0.15690782  0.76921128    -0.01500
C858        C  0.62703149  0.10908208  0.75162100     0.08200
C859        C  0.64221026  0.09894260  0.72516993    -0.01600
C860        C  0.66140800  0.13557163  0.71690074    -0.01600
C861        C  0.66887116  0.18082154  0.73848165     0.08300
C862        C  0.65263515  0.19188558  0.76392717    -0.01800
Br863      Br  0.66136983  0.25235442  0.79511765    -0.00400
Br864      Br  0.60787434  0.17416538  0.80233857    -0.00500
Br865      Br  0.67699159  0.12269112  0.67530030    -0.00400
Br866      Br  0.64095799  0.03321831  0.70398344    -0.00400
C867        C  0.70196548  0.35107057  0.61363558    -0.01500
C868        C  0.70751173  0.30031653  0.62617937     0.08200
C869        C  0.70047324  0.26310493  0.59642941    -0.01600
C870        C  0.68899058  0.27646810  0.55564932    -0.01600
C871        C  0.68654238  0.32723695  0.54364022     0.08300
C872        C  0.69387368  0.36425328  0.57327036    -0.01800
Br873      Br  0.69673770  0.43360918  0.56016330    -0.02000
Br874      Br  0.70406070  0.40437633  0.65017515    -0.00500
Br875      Br  0.67491565  0.22418157  0.51665747    -0.00400
Br876      Br  0.70414962  0.19276874  0.61011779    -0.00400
C877        C  0.74240185  0.22103165  0.97176070    -0.01500
C878        C  0.77242072  0.23464755  0.99997821     0.08200
C879        C  0.77555301  0.27962553  0.52138473    -0.01600
C880        C  0.74932908  0.31144113  0.51311439    -0.01600
C881        C  0.71942623  0.29802050  0.48452177     0.08300
C882        C  0.71651324  0.25368647  0.96246785    -0.01800
Br883      Br  0.67669135  0.23575644  0.92024122    -0.00400
Br884      Br  0.73487056  0.15444855  0.95063175    -0.00500
Br885      Br  0.75565307  0.37580867  0.53805067    -0.00400
Br886      Br  0.81573770  0.29847137  0.56253617    -0.00400
C887        C  0.79281946  0.16098349  0.91291647    -0.01500
C888        C  0.80477096  0.19753274  0.94293295     0.08200
C889        C  0.80603016  0.24803674  0.93122668    -0.01600
C890        C  0.79553435  0.26161345  0.89059656    -0.01600
C891        C  0.78208099  0.22541823  0.86082229     0.08300
C892        C  0.78053613  0.17505652  0.87229955    -0.01800
Br893      Br  0.75891033  0.12537451  0.83270241    -0.00400
Br894      Br  0.79119688  0.09147334  0.92647068    -0.00500
Br895      Br  0.80132373  0.32981263  0.87606999    -0.00400
Br896      Br  0.82393482  0.29922230  0.97044677    -0.00400
C897        C  0.55008377  0.08003222  0.68037090    -0.01500
C898        C  0.56680099  0.03966937  0.70449753     0.08200
C899        C  0.56726462  0.99346464  0.68620967    -0.01600
C900        C  0.55090018  0.98725402  0.64500951    -0.01600
C901        C  0.53345495  0.02711656  0.62112683     0.08300
C902        C  0.53319527  0.07361732  0.63900133    -0.01800
Br903      Br  0.00857515  0.12811818  0.60715213    -0.00400
Br904      Br  0.55028312  0.14446181  0.70324367    -0.00500
Br905      Br  0.55490687  0.42464990  0.62112596    -0.00400
Br906      Br  0.59365338  0.43975570  0.71630908    -0.00400
C907        C  0.92964861  0.46835235  0.81755465    -0.01500
C908        C  0.94754340  0.43108702  0.80799381     0.08200
C909        C  0.97430492  0.41092337  0.83907545    -0.01600
C910        C  0.98370172  0.42886384  0.87806996    -0.01600
C911        C  0.96563168  0.46517251  0.88740868     0.08300
C912        C  0.93848041  0.98469406  0.85721579    -0.01800
Br913      Br  0.91294485  0.03269213  0.87085085    -0.00400
Br914      Br  0.89341723  0.99863173  0.77729420    -0.00500
Br915      Br  0.02196266  0.40383012  0.91887313    -0.00400
Br916      Br  0.99671698  0.35469716  0.83044601    -0.00400
C917        C  0.58108399  0.38285598  0.51373989    -0.01500
C918        C  0.57771100  0.43578044  0.51292425     0.08200
C919        C  0.60145986  0.46567561  0.50668232    -0.01600
C920        C  0.62371842  0.44390588  0.49361843    -0.01600
C921        C  0.62675074  0.39144486  0.49378994     0.08300
C922        C  0.60532306  0.36114956  0.50389311    -0.01800
Br923      Br  0.60553966  0.28980278  0.49763745    -0.00400
Br924      Br  0.55303607  0.33821774  0.52773311    -0.00500
Br925      Br  0.64845305  0.48716742  0.47283348    -0.00400
Br926      Br  0.60622105  0.03632563  0.01887453    -0.00400
C927        C  0.86309849  0.07193761  0.00419289    -0.01500
C928        C  0.86054186  0.12390994  0.99565957     0.08200
C929        C  0.88240401  0.14684467  0.98169780    -0.01600
C930        C  0.90605371  0.11845361  0.97565484    -0.01600
C931        C  0.91143965  0.06801284  0.98927469     0.08300
C932        C  0.88857487  0.04430514  0.00182535    -0.01800
Br933      Br  0.89123611  0.47432147  0.01718393    -0.00400
Br934      Br  0.83217374  0.03817082  0.02099562    -0.00500
Br935      Br  0.92951877  0.14992070  0.44670363    -0.00400
Br936      Br  0.88411113  0.21837242  0.97703438    -0.00400
O937        O  0.98725182  0.52304403  0.44089485    -0.74100
O938        O  0.52151076  0.55158156  0.05304614    -0.74100
O939        O  0.54290390  0.00612725  0.50201272    -0.74200
O940        O  0.96516842  0.56880923  0.49187457    -0.74200
O941        O  0.94549615  0.49555506  0.00038782    -0.74200
O942        O  0.52573941  0.93431109  0.01755783    -0.74100
O943        O  0.50046059  0.98044611  0.06460383    -0.74100
O944        O  0.97097703  0.94832250  0.45397299    -0.74200
Ni945      Ni  0.50475728  0.54010534  0.49652190     1.25400
Ni946      Ni  0.98490361  0.96216230  0.00961085     1.25400
C947        C  0.97460856  0.98005429  0.42932766     0.88100
C948        C  0.51721386  0.51996658  0.07742711     0.88000
C949        C  0.54761999  0.95992258  0.01177065     0.88000
C950        C  0.94196943  0.54264867  0.49356958     0.88200
N951        N  0.81400685  0.68419479  0.48484638    -0.03200
C952        C  0.83839613  0.65414216  0.50789887    -0.00600
C953        C  0.83974195  0.65257346  0.04660808    -0.23400
C954        C  0.81520849  0.68076800  0.04765879    -0.23700
C955        C  0.79998668  0.70033488  0.50988438    -0.00700
H956        H  0.85656182  0.63196733  0.07145475     0.13100
H957        H  0.80914193  0.68664361  0.07341525     0.13200
N958        N  0.67644546  0.84125634  0.00176110    -0.03200
C959        C  0.65050655  0.86899191  0.97982388    -0.00600
C960        C  0.64907056  0.87531820  0.44133677    -0.23400
C961        C  0.67501009  0.85180367  0.43929109    -0.23700
C962        C  0.69123085  0.83056009  0.97628583    -0.00700
H963        H  0.63107436  0.89537046  0.41728469     0.13100
H964        H  0.68111401  0.84954124  0.41323307     0.13200
O965        O  0.75255834  0.77975078  0.30646123    -0.74100
O966        O  0.71662105  0.81430398  0.19533239    -0.74100
O967        O  0.69719535  0.75943799  0.24519849    -0.74200
O968        O  0.77273970  0.83508240  0.25659523    -0.74200
O969        O  0.79379228  0.76670987  0.24229001    -0.74200
O970        O  0.71931045  0.69165863  0.23257743    -0.74100
O971        O  0.73822089  0.74697670  0.18139082    -0.74100
O972        O  0.77475041  0.71255720  0.29260679    -0.74200
Ni973      Ni  0.73405934  0.79968069  0.25136250     1.25400
Ni974      Ni  0.75719201  0.72714324  0.23657593     1.25400
C975        C  0.76928905  0.74009588  0.31789799     0.88100
C976        C  0.72128822  0.78641500  0.16970678     0.88000
C977        C  0.69613408  0.71251436  0.23812836     0.88000
C978        C  0.79580548  0.81292173  0.25155286     0.88200
N979        N  0.58351647  0.54468855  0.24725973    -0.03200
C980        C  0.61170949  0.56862716  0.26701497    -0.00600
C981        C  0.62274734  0.55636422  0.30716187    -0.23400
C982        C  0.60058248  0.52524692  0.31276592    -0.23700
C983        C  0.57686144  0.51861670  0.27582662    -0.00700
H984        H  0.64396862  0.57088329  0.33034714     0.13100
H985        H  0.60109638  0.51055080  0.34095550     0.13200
N986        N  0.93893111  0.91340916  0.26745629    -0.03200
C987        C  0.91252059  0.88676346  0.24516885    -0.00600
C988        C  0.91460649  0.87219172  0.20981728    -0.23400
C989        C  0.94270382  0.89082299  0.20958660    -0.23700
C990        C  0.95732493  0.91549236  0.24510367    -0.00700
H991        H  0.89703393  0.85123564  0.18619516     0.13100
H992        H  0.95146161  0.88720012  0.18586011     0.13200
C993        C  0.54562847  0.93951736  0.27290409    -0.01500
C994        C  0.54664145  0.49202567  0.26999766     0.08200
C995        C  0.01883842  0.51944517  0.26347756    -0.01600
C996        C  0.98973357  0.49450899  0.25586966    -0.01600
C997        C  0.98827166  0.94185882  0.25515393     0.08300
C998        C  0.51620230  0.91462750  0.26106044    -0.01800
Br999      Br  0.51469412  0.84399250  0.24966762    -0.00400
Br1000     Br  0.58399002  0.90152548  0.29860849    -0.00500
Br1001     Br  0.95146903  0.53302307  0.24121577    -0.00400
Br1002     Br  0.02130765  0.59082568  0.27036917    -0.00400
C1003       C  0.85413303  0.89571196  0.22729301    -0.01500
C1004       C  0.88351537  0.87636378  0.25372081     0.08200
C1005       C  0.88359531  0.83990414  0.28224602    -0.01600
C1006       C  0.85472190  0.82209400  0.28357761    -0.01600
C1007       C  0.82551972  0.84002690  0.25613705     0.08300
C1008       C  0.82540397  0.87820459  0.22905714    -0.01800
Br1009     Br  0.78587833  0.90325529  0.19148481    -0.00400
Br1010     Br  0.85269853  0.94345861  0.18599293    -0.00500
Br1011     Br  0.85501604  0.77120356  0.32204043    -0.00400
Br1012     Br  0.92243025  0.80860429  0.31589356    -0.00400
C1013       C  0.63106362  0.65690781  0.26921130    -0.01500
C1014       C  0.62703154  0.60908207  0.25162100     0.08200
C1015       C  0.64221026  0.59894266  0.22516986    -0.01600
C1016       C  0.66140802  0.63557170  0.21690072    -0.01600
C1017       C  0.66887121  0.68082155  0.23848170     0.08300
C1018       C  0.65263516  0.69188560  0.26392716    -0.01800
Br1019     Br  0.66136975  0.75235451  0.29511756    -0.00400
Br1020     Br  0.60787435  0.67416539  0.30233853    -0.00500
Br1021     Br  0.67699175  0.62269117  0.17530042    -0.00400
Br1022     Br  0.64095805  0.53321839  0.20398337    -0.00400
C1023       C  0.70196551  0.85107053  0.11363562    -0.01500
C1024       C  0.70751180  0.80031650  0.12617943     0.08200
C1025       C  0.70047328  0.76310493  0.09642945    -0.01600
C1026       C  0.68899062  0.77646811  0.05564935    -0.01600
C1027       C  0.68654238  0.82723695  0.04364023     0.08300
C1028       C  0.69387370  0.86425328  0.07327039    -0.01800
Br1029     Br  0.69673762  0.93360923  0.06016337    -0.02000
Br1030     Br  0.70406061  0.90437621  0.15017517    -0.00500
Br1031     Br  0.67491557  0.72418157  0.01665752    -0.00400
Br1032     Br  0.70414954  0.69276876  0.11011780    -0.00400
C1033       C  0.74240179  0.72103155  0.47176078    -0.01500
C1034       C  0.77242067  0.73464746  0.49997829     0.08200
C1035       C  0.77555298  0.77962548  0.02138479    -0.01600
C1036       C  0.74932906  0.81144112  0.01311440    -0.01600
C1037       C  0.71942622  0.79802050  0.98452178     0.08300
C1038       C  0.71651319  0.75368639  0.46246794    -0.01800
Br1039     Br  0.67669133  0.73575649  0.42024123    -0.00400
Br1040     Br  0.73487048  0.65444851  0.45063175    -0.00500
Br1041     Br  0.75565303  0.87580862  0.03805079    -0.00400
Br1042     Br  0.81573763  0.79847117  0.06253634    -0.00400
C1043       C  0.79281947  0.66098353  0.41291656    -0.01500
C1044       C  0.80477094  0.69753279  0.44293303     0.08200
C1045       C  0.80603015  0.74803680  0.43122677    -0.01600
C1046       C  0.79553435  0.76161350  0.39059665    -0.01600
C1047       C  0.78208103  0.72541825  0.36082239     0.08300
C1048       C  0.78053617  0.67505655  0.37229964    -0.01800
Br1049     Br  0.75891027  0.62537461  0.33270247    -0.00400
Br1050     Br  0.79119683  0.59147343  0.42647078    -0.00500
Br1051     Br  0.80132365  0.82981271  0.37607003    -0.00400
Br1052     Br  0.82393475  0.79922238  0.47044687    -0.00400
C1053       C  0.55008376  0.58003212  0.18037092    -0.01500
C1054       C  0.56680108  0.53966933  0.20449755     0.08200
C1055       C  0.56726476  0.49346464  0.18620966    -0.01600
C1056       C  0.55090031  0.48725401  0.14500951    -0.01600
C1057       C  0.53345500  0.52711651  0.12112685     0.08300
C1058       C  0.53319524  0.57361723  0.13900136    -0.01800
Br1059     Br  0.00857511  0.62811811  0.10715210    -0.00400
Br1060     Br  0.55028302  0.64446168  0.20324367    -0.00500
Br1061     Br  0.55490678  0.92464993  0.12112602    -0.00400
Br1062     Br  0.59365329  0.93975574  0.21630905    -0.00400
C1063       C  0.92964858  0.96835239  0.31755467    -0.01500
C1064       C  0.94754335  0.93108704  0.30799384     0.08200
C1065       C  0.97430487  0.91092340  0.33907545    -0.01600
C1066       C  0.98370174  0.92886392  0.37806995    -0.01600
C1067       C  0.96563171  0.96517261  0.38740869     0.08300
C1068       C  0.93848034  0.48469392  0.35721575    -0.01800
Br1069     Br  0.91294471  0.53269190  0.37085080    -0.00400
Br1070     Br  0.89341713  0.49863150  0.27729414    -0.00500
Br1071     Br  0.02196274  0.90383025  0.41887306    -0.00400
Br1072     Br  0.99671690  0.85469718  0.33044600    -0.00400
C1073       C  0.58108401  0.88285598  0.01373991    -0.01500
C1074       C  0.57771104  0.93578045  0.01292426     0.08200
C1075       C  0.60145988  0.96567557  0.00668226    -0.01600
C1076       C  0.62371840  0.94390580  0.99361833    -0.01600
C1077       C  0.62675074  0.89144479  0.99378992     0.08300
C1078       C  0.60532308  0.86114951  0.00389314    -0.01800
Br1079     Br  0.60553959  0.78980269  0.99763753    -0.00400
Br1080     Br  0.55303604  0.83821775  0.02773311    -0.00500
Br1081     Br  0.64845302  0.98716727  0.97283335    -0.00400
Br1082     Br  0.60622099  0.53632568  0.51887464    -0.00400
C1083       C  0.86309841  0.57193761  0.50419289    -0.01500
C1084       C  0.86054180  0.62390995  0.49565961     0.08200
C1085       C  0.88240396  0.64684471  0.48169788    -0.01600
C1086       C  0.90605367  0.61845367  0.47565493    -0.01600
C1087       C  0.91143958  0.56801286  0.48927470     0.08300
C1088       C  0.88857477  0.54430513  0.50182529    -0.01800
Br1089     Br  0.89123622  0.97432152  0.51718401    -0.00400
Br1090     Br  0.83217367  0.53817084  0.52099565    -0.00500
Br1091     Br  0.92951873  0.64992066  0.94670366    -0.00400
Br1092     Br  0.88411112  0.71837250  0.47703458    -0.00400
O1093       O  0.98725166  0.52304389  0.94089495    -0.74100
O1094       O  0.52151061  0.55158153  0.55304619    -0.74100
O1095       O  0.54290375  0.00612719  0.00201286    -0.74200
O1096       O  0.96516829  0.56880910  0.99187471    -0.74200
O1097       O  0.94549629  0.49555515  0.50038763    -0.74200
O1098       O  0.52573951  0.93431115  0.51755763    -0.74100
O1099       O  0.50046064  0.98044607  0.56460361    -0.74100
O1100       O  0.97097726  0.94832256  0.95397288    -0.74200
Ni1101     Ni  0.50475746  0.54010545  0.99652184     1.25400
Ni1102     Ni  0.98490343  0.96216225  0.50961098     1.25400
C1103       C  0.97460879  0.98005438  0.92932758     0.88100
C1104       C  0.51721378  0.51996657  0.57742722     0.88000
C1105       C  0.54762010  0.95992262  0.51177046     0.88000
C1106       C  0.94196930  0.54264858  0.99356978     0.88200
N1107       N  0.81400674  0.68419486  0.98484653    -0.03200
C1108       C  0.83839603  0.65414229  0.00789910    -0.00600
C1109       C  0.83974216  0.65257329  0.54660790    -0.23400
C1110       C  0.81520872  0.68076792  0.54765874    -0.23700
C1111       C  0.79998651  0.70033498  0.00988447    -0.00700
H1112       H  0.85656194  0.63196732  0.57145433     0.13100
H1113       H  0.80914231  0.68664350  0.57341489     0.13200
N1114       N  0.67644564  0.84125617  0.50176128    -0.03200
C1115       C  0.65050677  0.86899181  0.47982403    -0.00600
C1116       C  0.64907032  0.87531838  0.94133662    -0.23400
C1117       C  0.67500986  0.85180393  0.93929097    -0.23700
C1118       C  0.69123104  0.83055988  0.47628605    -0.00700
H1119       H  0.63107414  0.89537067  0.91728460     0.13100
H1120       H  0.68111386  0.84954154  0.91323257     0.13200
O1121       O  0.75255840  0.77975082  0.80646137    -0.74100
O1122       O  0.71662112  0.81430412  0.69533253    -0.74100
O1123       O  0.69719539  0.75943816  0.74519859    -0.74200
O1124       O  0.77273975  0.83508251  0.75659540    -0.74200
O1125       O  0.79379232  0.76671001  0.74229009    -0.74200
O1126       O  0.71931052  0.69165877  0.73257762    -0.74100
O1127       O  0.73822092  0.74697678  0.68139097    -0.74100
O1128       O  0.77475051  0.71255730  0.79260691    -0.74200
Ni1129     Ni  0.73405940  0.79968080  0.75136264     1.25400
Ni1130     Ni  0.75719207  0.72714335  0.73657606     1.25400
C1131       C  0.76928914  0.74009594  0.81789812     0.88100
C1132       C  0.72128826  0.78641507  0.66970693     0.88000
C1133       C  0.69613412  0.71251453  0.73812849     0.88000
C1134       C  0.79580551  0.81292186  0.75155297     0.88200
N1135       N  0.58351649  0.54468875  0.74725986    -0.03200
C1136       C  0.61170945  0.56862751  0.76701517    -0.00600
C1137       C  0.62274725  0.55636475  0.80716215    -0.23400
C1138       C  0.60058233  0.52524732  0.81276616    -0.23700
C1139       C  0.57686139  0.51861697  0.77582672    -0.00700
H1140       H  0.64396812  0.57088368  0.83034709     0.13100
H1141       H  0.60109614  0.51055154  0.84095525     0.13200
N1142       N  0.93893109  0.91340951  0.76745615    -0.03200
C1143       C  0.91252052  0.88676386  0.74516875    -0.00600
C1144       C  0.91460634  0.87219214  0.70981712    -0.23400
C1145       C  0.94270363  0.89082344  0.70958640    -0.23700
C1146       C  0.95732483  0.91549276  0.74510342    -0.00700
H1147       H  0.89703378  0.85123612  0.68619507     0.13100
H1148       H  0.95146148  0.88720052  0.68585953     0.13200
C1149       C  0.54562863  0.93951703  0.77290426    -0.01500
C1150       C  0.54664137  0.49202598  0.76999766     0.08200
C1151       C  0.01883844  0.51944487  0.76347755    -0.01600
C1152       C  0.98973364  0.49450859  0.75586979    -0.01600
C1153       C  0.98827157  0.94185918  0.75515368     0.08300
C1154       C  0.51620251  0.91462704  0.76106079    -0.01800
Br1155     Br  0.51469447  0.84399195  0.74966831    -0.00400
Br1156     Br  0.58399026  0.90152528  0.79860857    -0.00500
Br1157     Br  0.95146905  0.53302250  0.74121586    -0.00400
Br1158     Br  0.02130758  0.59082541  0.77036898    -0.00400
C1159       C  0.85413295  0.89571234  0.72729312    -0.01500
C1160       C  0.88351533  0.87636415  0.75372082     0.08200
C1161       C  0.88359531  0.83990439  0.78224597    -0.01600
C1162       C  0.85472193  0.82209415  0.78357762    -0.01600
C1163       C  0.82551972  0.84002707  0.75613714     0.08300
C1164       C  0.82540391  0.87820484  0.72905727    -0.01800
Br1165     Br  0.78587822  0.90325541  0.69148498    -0.00400
Br1166     Br  0.85269833  0.94345906  0.68599308    -0.00500
Br1167     Br  0.85501611  0.77120373  0.82204049    -0.00400
Br1168     Br  0.92243032  0.80860466  0.81589342    -0.00400
C1169       C  0.63106349  0.65690818  0.76921125    -0.01500
C1170       C  0.62703156  0.60908231  0.75162120     0.08200
C1171       C  0.64221047  0.59894269  0.72517030    -0.01600
C1172       C  0.66140819  0.63557170  0.71690105    -0.01600
C1173       C  0.66887123  0.68082172  0.73848181     0.08300
C1174       C  0.65263505  0.69188594  0.76392711    -0.01800
Br1175     Br  0.66136945  0.75235503  0.79511729    -0.00400
Br1176     Br  0.60787409  0.67416590  0.80233830    -0.00500
Br1177     Br  0.67699204  0.62269090  0.67530088    -0.00400
Br1178     Br  0.64095855  0.53321820  0.70398432    -0.00400
C1179       C  0.70196557  0.85107049  0.61363573    -0.01500
C1180       C  0.70751184  0.80031649  0.62617958     0.08200
C1181       C  0.70047336  0.76310484  0.59642966    -0.01600
C1182       C  0.68899070  0.77646796  0.55564954    -0.01600
C1183       C  0.68654252  0.82723679  0.54364040     0.08300
C1184       C  0.69387380  0.86425316  0.57327051    -0.01800
Br1185     Br  0.69673782  0.93360907  0.56016344    -0.02000
Br1186     Br  0.70406058  0.90437626  0.65017519    -0.00500
Br1187     Br  0.67491564  0.72418138  0.51665773    -0.00400
Br1188     Br  0.70414960  0.69276869  0.61011809    -0.00400
C1189       C  0.74240165  0.72103170  0.97176071    -0.01500
C1190       C  0.77242050  0.73464758  0.99997830     0.08200
C1191       C  0.77555320  0.77962532  0.52138484    -0.01600
C1192       C  0.74932926  0.81144088  0.51311463    -0.01600
C1193       C  0.71942639  0.79802026  0.48452204     0.08300
C1194       C  0.71651305  0.75368658  0.96246772    -0.01800
Br1195     Br  0.67669121  0.73575662  0.92024100    -0.00400
Br1196     Br  0.73487041  0.65444860  0.95063178    -0.00500
Br1197     Br  0.75565328  0.87580831  0.53805114    -0.00400
Br1198     Br  0.81573796  0.79847119  0.56253613    -0.00400
C1199       C  0.79281952  0.66098356  0.91291671    -0.01500
C1200       C  0.80477090  0.69753284  0.94293319     0.08200
C1201       C  0.80603007  0.74803685  0.93122693    -0.01600
C1202       C  0.79553433  0.76161355  0.89059681    -0.01600
C1203       C  0.78208114  0.72541828  0.86082253     0.08300
C1204       C  0.78053634  0.67505654  0.87229978    -0.01800
Br1205     Br  0.75891072  0.62537446  0.83270258    -0.00400
Br1206     Br  0.79119685  0.59147346  0.92647095    -0.00500
Br1207     Br  0.80132349  0.82981284  0.87607028    -0.00400
Br1208     Br  0.82393457  0.79922246  0.97044703    -0.00400
C1209       C  0.55008387  0.58003228  0.68037098    -0.01500
C1210       C  0.56680116  0.53966950  0.70449765     0.08200
C1211       C  0.56726480  0.49346475  0.68620980    -0.01600
C1212       C  0.55090029  0.48725406  0.64500965    -0.01600
C1213       C  0.53345500  0.52711655  0.62112697     0.08300
C1214       C  0.53319534  0.57361732  0.63900143    -0.01800
Br1215     Br  0.00857525  0.62811832  0.60715207    -0.00400
Br1216     Br  0.55028302  0.64446182  0.70324372    -0.00500
Br1217     Br  0.55490686  0.92464988  0.62112581    -0.00400
Br1218     Br  0.59365319  0.93975555  0.71630887    -0.00400
C1219       C  0.92964875  0.96835274  0.81755462    -0.01500
C1220       C  0.94754344  0.93108733  0.80799371     0.08200
C1221       C  0.97430498  0.91092361  0.83907528    -0.01600
C1222       C  0.98370190  0.92886407  0.87806980    -0.01600
C1223       C  0.96563192  0.96517278  0.88740860     0.08300
C1224       C  0.93848016  0.48469367  0.85721579    -0.01800
Br1225     Br  0.91294444  0.53269164  0.87085067    -0.00400
Br1226     Br  0.89341708  0.49863121  0.77729411    -0.00500
Br1227     Br  0.02196290  0.90383034  0.91887287    -0.00400
Br1228     Br  0.99671699  0.85469738  0.83044575    -0.00400
C1229       C  0.58108409  0.88285594  0.51373973    -0.01500
C1230       C  0.57771112  0.93578043  0.51292405     0.08200
C1231       C  0.60145999  0.96567553  0.50668205    -0.01600
C1232       C  0.62371857  0.94390571  0.49361826    -0.01600
C1233       C  0.62675092  0.89144471  0.49378995     0.08300
C1234       C  0.60532321  0.86114946  0.50389308    -0.01800
Br1235     Br  0.60553974  0.78980268  0.49763745    -0.00400
Br1236     Br  0.55303606  0.83821773  0.52773283    -0.00500
Br1237     Br  0.64845326  0.98716713  0.47283329    -0.00400
Br1238     Br  0.60622104  0.53632572  0.01887400    -0.00400
C1239       C  0.86309836  0.57193773  0.00419329    -0.01500
C1240       C  0.86054174  0.62391005  0.99565993     0.08200
C1241       C  0.88240388  0.64684473  0.98169812    -0.01600
C1242       C  0.90605354  0.61845361  0.97565513    -0.01600
C1243       C  0.91143948  0.56801284  0.98927497     0.08300
C1244       C  0.88857470  0.54430519  0.00182568    -0.01800
Br1245     Br  0.89123631  0.97432139  0.01718359    -0.00400
Br1246     Br  0.83217364  0.53817102  0.02099614    -0.00500
Br1247     Br  0.92951892  0.64992088  0.44670359    -0.00400
Br1248     Br  0.88411106  0.71837249  0.97703470    -0.00400
loop_ 
_geom_bond_atom_site_label_1 
_geom_bond_atom_site_label_2 
_geom_bond_distance 
_geom_bond_site_symmetry_2 
_ccdc_geom_bond_type 
O1         Ni633   1.928       .  S
O1          C323   1.282   1_545  A
O2         Ni165   1.926   1_554  S
O2           C12   1.282       .  A
O3         Ni321   1.909       .  S
O3          C169   1.279       .  A
O4         Ni633   1.912       .  S
O4           C14   1.279       .  A
O5         Ni322   1.923       .  S
O5          C170   1.281   1_564  A
O6         Ni634   1.925   1_455  S
O6           C13   1.281       .  A
O7         Ni634   1.916   1_455  S
O7          C324   1.281       .  A
O8         Ni166   1.914       .  S
O8           C11   1.279       .  A
Ni9         O625   1.928   1_455  S
Ni9         O158   1.926       .  S
Ni9         O315   1.909       .  S
Ni9         O628   1.912   1_455  S
Ni9       Ni1102   2.375   1_445  S
Ni10        O317   1.923       .  S
Ni10        O630   1.925       .  S
Ni10        O631   1.916       .  S
Ni10        O164   1.914   1_554  S
Ni10      Ni1101   2.375   1_554  S
C11         O313   1.282       .  A
C11         C131   1.477       .  S
C12         O319   1.281   1_545  A
C12         C121   1.488       .  S
C13         O159   1.279       .  A
C13         C138   1.506       .  S
C14         O161   1.281   1_545  A
C14         C151   1.506       .  S
N15          C19   1.369       .  A
N15          C16   1.370       .  A
N15         C108   1.457       .  S
C16         C148   1.494       .  S
C16         C173   1.383       .  A
C17          C18   1.367       .  A
C17         C172   1.383       .  A
C17          H20   1.085       .  S
C18         C175   1.380       .  A
C18          H21   1.084       .  S
C19          C98   1.490       .  S
C19         C174   1.380       .  A
N22          C26   1.368   1_554  A
N22          C23   1.367   1_554  A
N22          C91   1.457       .  S
C23         C141   1.491       .  S
C23         C180   1.382       .  A
C24          C25   1.370       .  A
C24         C179   1.382       .  A
C24          H27   1.085       .  S
C25         C182   1.382       .  A
C25          H28   1.084       .  S
C26         C101   1.490       .  S
C26         C181   1.382       .  A
O29         Ni37   1.923       .  S
O29          C39   1.282       .  A
O30         Ni37   1.919       .  S
O30          C40   1.280       .  A
O31         Ni37   1.923       .  S
O31          C41   1.281       .  A
O32         Ni37   1.934       .  S
O32          C42   1.284       .  A
O33         Ni38   1.907       .  S
O33          C42   1.279       .  A
O34         Ni38   1.914       .  S
O34          C41   1.281       .  A
O35         Ni38   1.927       .  S
O35          C40   1.283       .  A
O36         Ni38   1.919       .  S
O36          C39   1.281       .  A
Ni37        Ni38   2.380       .  S
C39         C111   1.491       .  S
C40          C88   1.506       .  S
C41          C81   1.498       .  S
C42          C71   1.479       .  S
N43          C47   1.366       .  A
N43          C44   1.365       .  A
N43         C118   1.454       .  S
C44          C78   1.493       .  S
C44          C45   1.386       .  A
C45          C46   1.372       .  A
C45          H48   1.084       .  S
C46          C47   1.378       .  A
C46          H49   1.083       .  S
C47          C58   1.483   1_545  S
N50          C54   1.368       .  A
N50          C51   1.365       .  A
N50         C128   1.456       .  S
C51          C68   1.487       .  S
C51          C52   1.383       .  A
C52          C53   1.369       .  A
C52          H55   1.082       .  S
C53          C54   1.379       .  A
C53          H56   1.083       .  S
C54          C61   1.485       .  S
C57          C62   1.403       .  A
C57         C370   1.409       .  A
C57         Br64   1.931       .  S
C58         C369   1.409       .  A
C58         C683   1.408   1_565  A
C59          C60   1.407   1_545  A
C59         C682   1.408   1_545  A
C59         Br66   1.926       .  S
C60         C373   1.409       .  A
C60         Br65   1.923   1_565  S
C61         C372   1.409       .  A
C61         C686   1.415       .  A
C62         C685   1.415   1_455  A
C62         Br63   1.935       .  S
C67          C68   1.416       .  A
C67          C72   1.406       .  A
C67         Br74   1.939       .  S
C68          C69   1.412       .  A
C69          C70   1.409       .  A
C69         Br76   1.920       .  S
C70          C71   1.409       .  A
C70         Br75   1.933       .  S
C71          C72   1.407       .  A
C72         Br73   1.920       .  S
C77          C78   1.416       .  A
C77          C82   1.411       .  A
C77         Br84   1.938       .  S
C78          C79   1.409       .  A
C79          C80   1.408       .  A
C79         Br86   1.920       .  S
C80          C81   1.417       .  A
C80         Br85   1.931       .  S
C81          C82   1.419       .  A
C82         Br83   1.936       .  S
C87          C88   1.421       .  A
C87          C92   1.410       .  A
C87         Br94   1.937       .  S
C88          C89   1.421       .  A
C89          C90   1.413       .  A
C89         Br96   1.933       .  S
C90          C91   1.414       .  A
C90         Br95   1.927       .  S
C91          C92   1.413       .  A
C92         Br93   1.924       .  S
C97          C98   1.409       .  A
C97         C102   1.407       .  A
C97        Br104   1.924       .  S
C98         C255   1.417       .  A
C99         C100   1.408       .  A
C99         C254   1.417   1_554  A
C99        Br106   1.938       .  S
C100        C101   1.409   1_554  A
C100       Br105   1.923       .  S
C101        C258   1.416       .  A
C102        C257   1.416       .  A
C102       Br103   1.938       .  S
C107        C108   1.416       .  A
C107        C112   1.412       .  A
C107       Br114   1.925       .  S
C108        C109   1.418       .  A
C109        C110   1.411       .  A
C109       Br116   1.927       .  S
C110        C111   1.412       .  A
C110       Br115   1.935       .  S
C111        C112   1.414       .  A
C112       Br113   1.936       .  S
C117        C118   1.414       .  A
C117        C122   1.416       .  A
C117       Br124   1.921       .  S
C118        C119   1.415   1_545  A
C119        C120   1.407       .  A
C119       Br438   1.925       .  S
C120        C121   1.412   1_565  A
C120       Br437   1.938       .  S
C121        C122   1.413       .  A
C122       Br747   1.931       .  S
Br123       C746   1.931       .  S
Br125       C432   1.938       .  S
Br126       C431   1.925       .  S
C127        C128   1.421       .  A
C127        C444   1.414       .  A
C127       Br446   1.919       .  S
C128        C129   1.416       .  A
C129        C130   1.404       .  A
C129       Br136   1.921       .  S
C130        C131   1.404       .  A
C130       Br135   1.928       .  S
C131        C444   1.405       .  A
C132        C439   1.414       .  A
C132        C443   1.405       .  A
C132       Br133   1.931   1_565  S
Br134       C439   1.919       .  S
C137        C138   1.425       .  A
C137        C142   1.414       .  A
C137       Br144   1.936       .  S
C138        C139   1.420       .  A
C139        C140   1.405   1_554  A
C139       Br614   1.938       .  S
C140        C141   1.411       .  A
C140       Br145   1.940       .  S
C141        C142   1.409   1_556  A
C142       Br143   1.926   1_554  S
Br146       C607   1.938   1_545  S
C147        C148   1.417       .  A
C147        C152   1.412       .  A
C147       Br154   1.942       .  S
C148        C149   1.407       .  A
C149        C150   1.408       .  A
C149       Br156   1.922       .  S
C150        C151   1.423       .  A
C150       Br311   1.938       .  S
C151        C152   1.423       .  A
C152       Br465   1.938   1_545  S
Br153       C464   1.938       .  S
Br155       C306   1.938       .  S
O157       Ni789   1.928       .  S
O157        C479   1.282   1_545  A
O158        C168   1.282       .  A
O159       Ni477   1.909   1_554  S
O160       Ni789   1.912       .  S
O160        C170   1.279       .  A
O161       Ni478   1.923       .  S
O162       Ni790   1.925   1_455  S
O162        C169   1.281       .  A
O163       Ni790   1.916   1_455  S
O163        C480   1.281       .  A
O164        C167   1.279       .  A
Ni165       O781   1.928   1_455  S
Ni165       O471   1.909   1_556  S
Ni165       O784   1.912   1_455  S
Ni165      Ni946   2.375   1_446  S
Ni166       O473   1.923       .  S
Ni166       O786   1.925       .  S
Ni166       O787   1.916       .  S
Ni166      Ni945   2.375       .  S
C167        O469   1.282       .  A
C167        C287   1.477       .  S
C168        O475   1.281   1_545  A
C168        C277   1.488       .  S
C169        C294   1.506       .  S
C170        C307   1.506       .  S
N171        C175   1.369   1_556  A
N171        C172   1.370   1_556  A
N171        C264   1.457       .  S
C172        C304   1.494   1_554  S
C173        C174   1.367       .  A
C173        H176   1.085       .  S
C174        H177   1.084       .  S
C175        C254   1.490   1_554  S
N178        C182   1.368       .  A
N178        C179   1.367       .  A
N178        C247   1.457       .  S
C179        C297   1.491       .  S
C180        C181   1.370       .  A
C180        H183   1.085       .  S
C181        H184   1.084       .  S
C182        C257   1.490       .  S
O185       Ni193   1.923       .  S
O185        C195   1.282       .  A
O186       Ni193   1.919       .  S
O186        C196   1.280       .  A
O187       Ni193   1.923       .  S
O187        C197   1.281       .  A
O188       Ni193   1.934       .  S
O188        C198   1.284       .  A
O189       Ni194   1.907       .  S
O189        C198   1.279       .  A
O190       Ni194   1.914       .  S
O190        C197   1.281       .  A
O191       Ni194   1.927       .  S
O191        C196   1.283       .  A
O192       Ni194   1.919       .  S
O192        C195   1.281       .  A
Ni193      Ni194   2.380       .  S
C195        C267   1.491       .  S
C196        C244   1.506       .  S
C197        C237   1.498       .  S
C198        C227   1.479       .  S
N199        C203   1.366       .  A
N199        C200   1.365       .  A
N199        C274   1.454       .  S
C200        C234   1.493       .  S
C200        C201   1.386       .  A
C201        C202   1.372       .  A
C201        H204   1.084       .  S
C202        C203   1.378       .  A
C202        H205   1.083       .  S
C203        C214   1.483   1_545  S
N206        C210   1.368       .  A
N206        C207   1.365       .  A
N206        C284   1.456       .  S
C207        C224   1.487       .  S
C207        C208   1.383       .  A
C208        C209   1.369       .  A
C208        H211   1.082       .  S
C209        C210   1.379       .  A
C209        H212   1.083       .  S
C210        C217   1.485       .  S
C213        C526   1.409       .  A
C213        C218   1.403       .  A
C213       Br220   1.931       .  S
C214        C525   1.409       .  A
C214        C839   1.408   1_565  A
C215        C838   1.408   1_545  A
C215        C216   1.407   1_545  A
C215       Br222   1.926       .  S
C216        C529   1.409       .  A
C216       Br221   1.923   1_565  S
C217        C528   1.409       .  A
C217        C842   1.415       .  A
C218        C841   1.415   1_455  A
C218       Br219   1.935       .  S
C223        C224   1.416       .  A
C223        C228   1.406       .  A
C223       Br230   1.939       .  S
C224        C225   1.412       .  A
C225        C226   1.409       .  A
C225       Br232   1.920       .  S
C226        C227   1.409       .  A
C226       Br231   1.933       .  S
C227        C228   1.407       .  A
C228       Br229   1.920       .  S
C233        C234   1.416       .  A
C233        C238   1.411       .  A
C233       Br240   1.938       .  S
C234        C235   1.409       .  A
C235        C236   1.408       .  A
C235       Br242   1.920       .  S
C236        C237   1.417       .  A
C236       Br241   1.931       .  S
C237        C238   1.419       .  A
C238       Br239   1.936       .  S
C243        C244   1.421       .  A
C243        C248   1.410       .  A
C243       Br250   1.937       .  S
C244        C245   1.421       .  A
C245        C246   1.413       .  A
C245       Br252   1.933       .  S
C246        C247   1.414       .  A
C246       Br251   1.927       .  S
C247        C248   1.413       .  A
C248       Br249   1.924       .  S
C253        C254   1.409       .  A
C253        C258   1.407       .  A
C253       Br260   1.924       .  S
C255        C256   1.408       .  A
C255       Br262   1.938       .  S
C256        C257   1.409       .  A
C256       Br261   1.923       .  S
C258       Br259   1.938       .  S
C263        C264   1.416       .  A
C263        C268   1.412       .  A
C263       Br270   1.925       .  S
C264        C265   1.418       .  A
C265        C266   1.411       .  A
C265       Br272   1.927       .  S
C266        C267   1.412       .  A
C266       Br271   1.935       .  S
C267        C268   1.414       .  A
C268       Br269   1.936       .  S
C273        C274   1.414       .  A
C273        C278   1.416       .  A
C273       Br280   1.921       .  S
C274        C275   1.415   1_545  A
C275        C276   1.407       .  A
C275       Br594   1.925       .  S
C276        C277   1.412   1_565  A
C276       Br593   1.938       .  S
C277        C278   1.413       .  A
C278       Br903   1.931       .  S
Br279       C902   1.931       .  S
Br281       C588   1.938       .  S
Br282       C587   1.925       .  S
C283        C284   1.421       .  A
C283        C600   1.414       .  A
C283       Br602   1.919       .  S
C284        C285   1.416       .  A
C285        C286   1.404       .  A
C285       Br292   1.921       .  S
C286        C287   1.404       .  A
C286       Br291   1.928       .  S
C287        C600   1.405       .  A
C288        C595   1.414       .  A
C288        C599   1.405       .  A
C288       Br289   1.931   1_565  S
Br290       C595   1.919       .  S
C293        C294   1.425       .  A
C293        C298   1.414       .  A
C293       Br300   1.936       .  S
C294        C295   1.420       .  A
C295        C296   1.405       .  A
C295       Br458   1.938       .  S
C296        C297   1.411       .  A
C296       Br301   1.940       .  S
C297        C298   1.409       .  A
C298       Br299   1.926       .  S
Br302       C451   1.938   1_545  S
C303        C304   1.417   1_554  A
C303        C308   1.412       .  A
C303       Br310   1.942       .  S
C304        C305   1.407       .  A
C305        C306   1.408       .  A
C305       Br312   1.922       .  S
C306        C307   1.423       .  A
C307        C308   1.423   1_556  A
C308       Br621   1.938   1_545  S
Br309       C620   1.938       .  S
O313       Ni945   1.928       .  S
O314       Ni477   1.926   1_554  S
O314        C324   1.282       .  A
O315        C481   1.279   1_545  A
O316       Ni945   1.912       .  S
O316        C326   1.279       .  A
O317        C482   1.281   1_554  A
O318       Ni946   1.925   1_455  S
O318        C325   1.281       .  A
O319       Ni946   1.916   1_455  S
O320       Ni478   1.914       .  S
O320        C323   1.279       .  A
Ni321       O937   1.928   1_455  S
Ni321       O470   1.926       .  S
Ni321       O940   1.912   1_455  S
Ni321      Ni790   2.375   1_455  S
Ni322       O942   1.925       .  S
Ni322       O943   1.916       .  S
Ni322       O476   1.914   1_554  S
Ni322      Ni789   2.375   1_564  S
C323        C443   1.477       .  S
C324        C433   1.488       .  S
C325        O471   1.279   1_565  A
C325        C450   1.506       .  S
C326        O473   1.281       .  A
C326        C463   1.506       .  S
N327        C331   1.369       .  A
N327        C328   1.370       .  A
N327        C420   1.457       .  S
C328        C460   1.494       .  S
C328        C485   1.383       .  A
C329        C484   1.383       .  A
C329        C330   1.367       .  A
C329        H332   1.085       .  S
C330        C487   1.380       .  A
C330        H333   1.084       .  S
C331        C410   1.490       .  S
C331        C486   1.380       .  A
N334        C338   1.368   1_554  A
N334        C335   1.367   1_554  A
N334        C403   1.457       .  S
C335        C453   1.491       .  S
C335        C492   1.382       .  A
C336        C491   1.382       .  A
C336        C337   1.370       .  A
C336        H339   1.085       .  S
C337        C494   1.382       .  A
C337        H340   1.084       .  S
C338        C413   1.490       .  S
C338        C493   1.382       .  A
O341       Ni349   1.923       .  S
O341        C351   1.282       .  A
O342       Ni349   1.919       .  S
O342        C352   1.280       .  A
O343       Ni349   1.923       .  S
O343        C353   1.281       .  A
O344       Ni349   1.934       .  S
O344        C354   1.284       .  A
O345       Ni350   1.907       .  S
O345        C354   1.279       .  A
O346       Ni350   1.914       .  S
O346        C353   1.281       .  A
O347       Ni350   1.927       .  S
O347        C352   1.283       .  A
O348       Ni350   1.919       .  S
O348        C351   1.281       .  A
Ni349      Ni350   2.380       .  S
C351        C423   1.491       .  S
C352        C400   1.506       .  S
C353        C393   1.498       .  S
C354        C383   1.479       .  S
N355        C359   1.366       .  A
N355        C356   1.365       .  A
N355        C430   1.454       .  S
C356        C390   1.493       .  S
C356        C357   1.386       .  A
C357        C358   1.372       .  A
C357        H360   1.084       .  S
C358        C359   1.378       .  A
C358        H361   1.083       .  S
C359        C370   1.483       .  S
N362        C366   1.368       .  A
N362        C363   1.365       .  A
N362        C440   1.456       .  S
C363        C380   1.487       .  S
C363        C364   1.383       .  A
C364        C365   1.369       .  A
C364        H367   1.082       .  S
C365        C366   1.379       .  A
C365        H368   1.083       .  S
C366        C373   1.485       .  S
C369        C374   1.403       .  A
C369       Br376   1.931       .  S
C370        C995   1.408       .  A
C371        C994   1.408       .  A
C371        C372   1.407       .  A
C371       Br378   1.926       .  S
C372       Br377   1.923       .  S
C373        C998   1.415       .  A
C374        C997   1.415   1_455  A
C374       Br375   1.935       .  S
C379        C380   1.416       .  A
C379        C384   1.406       .  A
C379       Br386   1.939       .  S
C380        C381   1.412       .  A
C381        C382   1.409       .  A
C381       Br388   1.920       .  S
C382        C383   1.409       .  A
C382       Br387   1.933       .  S
C383        C384   1.407       .  A
C384       Br385   1.920       .  S
C389        C390   1.416       .  A
C389        C394   1.411       .  A
C389       Br396   1.938       .  S
C390        C391   1.409       .  A
C391        C392   1.408       .  A
C391       Br398   1.920       .  S
C392        C393   1.417       .  A
C392       Br397   1.931       .  S
C393        C394   1.419       .  A
C394       Br395   1.936       .  S
C399        C400   1.421       .  A
C399        C404   1.410       .  A
C399       Br406   1.937       .  S
C400        C401   1.421       .  A
C401        C402   1.413       .  A
C401       Br408   1.933       .  S
C402        C403   1.414       .  A
C402       Br407   1.927       .  S
C403        C404   1.413       .  A
C404       Br405   1.924       .  S
C409        C410   1.409       .  A
C409        C414   1.407       .  A
C409       Br416   1.924       .  S
C410        C567   1.417       .  A
C411        C566   1.417   1_554  A
C411        C412   1.408       .  A
C411       Br418   1.938       .  S
C412        C413   1.409   1_554  A
C412       Br417   1.923       .  S
C413        C570   1.416       .  A
C414        C569   1.416       .  A
C414       Br415   1.938       .  S
C419        C420   1.416       .  A
C419        C424   1.412       .  A
C419       Br426   1.925       .  S
C420        C421   1.418       .  A
C421        C422   1.411       .  A
C421       Br428   1.927       .  S
C422        C423   1.412       .  A
C422       Br427   1.935       .  S
C423        C424   1.414       .  A
C424       Br425   1.936       .  S
C429        C430   1.414       .  A
C429        C434   1.416       .  A
C429       Br436   1.921       .  S
C430        C431   1.415       .  A
C431        C432   1.407       .  A
C432        C433   1.412       .  A
C433        C434   1.413       .  A
C434      Br1059   1.931       .  S
Br435      C1058   1.931       .  S
C439        C440   1.421       .  A
C440        C441   1.416       .  A
C441        C442   1.404       .  A
C441       Br448   1.921       .  S
C442        C443   1.404       .  A
C442       Br447   1.928       .  S
C444       Br445   1.931       .  S
C449        C450   1.425       .  A
C449        C454   1.414       .  A
C449       Br456   1.936       .  S
C450        C451   1.420       .  A
C451        C452   1.405   1_554  A
C452        C453   1.411       .  A
C452       Br457   1.940       .  S
C453        C454   1.409   1_556  A
C454       Br455   1.926   1_554  S
C459        C460   1.417       .  A
C459        C464   1.412       .  A
C459       Br466   1.942       .  S
C460        C461   1.407       .  A
C461        C462   1.408       .  A
C461       Br468   1.922       .  S
C462        C463   1.423       .  A
C462       Br623   1.938       .  S
C463        C464   1.423       .  A
Br467       C618   1.938       .  S
O469      Ni1101   1.928       .  S
O470        C480   1.282       .  A
O472      Ni1101   1.912       .  S
O472        C482   1.279       .  A
O474      Ni1102   1.925   1_455  S
O474        C481   1.281       .  A
O475      Ni1102   1.916   1_455  S
O476        C479   1.279       .  A
Ni477      O1093   1.928   1_455  S
Ni477      O1096   1.912   1_455  S
Ni477      Ni634   2.375   1_456  S
Ni478      O1098   1.925       .  S
Ni478      O1099   1.916       .  S
Ni478      Ni633   2.375   1_565  S
C479        C599   1.477       .  S
C480        C589   1.488       .  S
C481        C606   1.506       .  S
C482        C619   1.506       .  S
N483        C487   1.369   1_556  A
N483        C484   1.370   1_556  A
N483        C576   1.457       .  S
C484        C616   1.494   1_554  S
C485        C486   1.367       .  A
C485        H488   1.085       .  S
C486        H489   1.084       .  S
C487        C566   1.490   1_554  S
N490        C494   1.368       .  A
N490        C491   1.367       .  A
N490        C559   1.457       .  S
C491        C609   1.491       .  S
C492        C493   1.370       .  A
C492        H495   1.085       .  S
C493        H496   1.084       .  S
C494        C569   1.490       .  S
O497       Ni505   1.923       .  S
O497        C507   1.282       .  A
O498       Ni505   1.919       .  S
O498        C508   1.280       .  A
O499       Ni505   1.923       .  S
O499        C509   1.281       .  A
O500       Ni505   1.934       .  S
O500        C510   1.284       .  A
O501       Ni506   1.907       .  S
O501        C510   1.279       .  A
O502       Ni506   1.914       .  S
O502        C509   1.281       .  A
O503       Ni506   1.927       .  S
O503        C508   1.283       .  A
O504       Ni506   1.919       .  S
O504        C507   1.281       .  A
Ni505      Ni506   2.380       .  S
C507        C579   1.491       .  S
C508        C556   1.506       .  S
C509        C549   1.498       .  S
C510        C539   1.479       .  S
N511        C515   1.366       .  A
N511        C512   1.365       .  A
N511        C586   1.454       .  S
C512        C546   1.493       .  S
C512        C513   1.386       .  A
C513        C514   1.372       .  A
C513        H516   1.084       .  S
C514        C515   1.378       .  A
C514        H517   1.083       .  S
C515        C526   1.483       .  S
N518        C522   1.368       .  A
N518        C519   1.365       .  A
N518        C596   1.456       .  S
C519        C536   1.487       .  S
C519        C520   1.383       .  A
C520        C521   1.369       .  A
C520        H523   1.082       .  S
C521        C522   1.379       .  A
C521        H524   1.083       .  S
C522        C529   1.485       .  S
C525        C530   1.403       .  A
C525       Br532   1.931       .  S
C526       C1151   1.408       .  A
C527       C1150   1.408       .  A
C527        C528   1.407       .  A
C527       Br534   1.926       .  S
C528       Br533   1.923       .  S
C529       C1154   1.415       .  A
C530       C1153   1.415   1_455  A
C530       Br531   1.935       .  S
C535        C536   1.416       .  A
C535        C540   1.406       .  A
C535       Br542   1.939       .  S
C536        C537   1.412       .  A
C537        C538   1.409       .  A
C537       Br544   1.920       .  S
C538        C539   1.409       .  A
C538       Br543   1.933       .  S
C539        C540   1.407       .  A
C540       Br541   1.920       .  S
C545        C546   1.416       .  A
C545        C550   1.411       .  A
C545       Br552   1.938       .  S
C546        C547   1.409       .  A
C547        C548   1.408       .  A
C547       Br554   1.920       .  S
C548        C549   1.417       .  A
C548       Br553   1.931       .  S
C549        C550   1.419       .  A
C550       Br551   1.936       .  S
C555        C556   1.421       .  A
C555        C560   1.410       .  A
C555       Br562   1.937       .  S
C556        C557   1.421       .  A
C557        C558   1.413       .  A
C557       Br564   1.933       .  S
C558        C559   1.414       .  A
C558       Br563   1.927       .  S
C559        C560   1.413       .  A
C560       Br561   1.924       .  S
C565        C566   1.409       .  A
C565        C570   1.407       .  A
C565       Br572   1.924       .  S
C567        C568   1.408       .  A
C567       Br574   1.938       .  S
C568        C569   1.409       .  A
C568       Br573   1.923       .  S
C570       Br571   1.938       .  S
C575        C576   1.416       .  A
C575        C580   1.412       .  A
C575       Br582   1.925       .  S
C576        C577   1.418       .  A
C577        C578   1.411       .  A
C577       Br584   1.927       .  S
C578        C579   1.412       .  A
C578       Br583   1.935       .  S
C579        C580   1.414       .  A
C580       Br581   1.936       .  S
C585        C586   1.414       .  A
C585        C590   1.416       .  A
C585       Br592   1.921       .  S
C586        C587   1.415       .  A
C587        C588   1.407       .  A
C588        C589   1.412       .  A
C589        C590   1.413       .  A
C590      Br1215   1.931       .  S
Br591      C1214   1.931       .  S
C595        C596   1.421       .  A
C596        C597   1.416       .  A
C597        C598   1.404       .  A
C597       Br604   1.921       .  S
C598        C599   1.404       .  A
C598       Br603   1.928       .  S
C600       Br601   1.931       .  S
C605        C606   1.425       .  A
C605        C610   1.414       .  A
C605       Br612   1.936       .  S
C606        C607   1.420       .  A
C607        C608   1.405       .  A
C608        C609   1.411       .  A
C608       Br613   1.940       .  S
C609        C610   1.409       .  A
C610       Br611   1.926       .  S
C615        C616   1.417   1_554  A
C615        C620   1.412       .  A
C615       Br622   1.942       .  S
C616        C617   1.407       .  A
C617        C618   1.408       .  A
C617       Br624   1.922       .  S
C618        C619   1.423       .  A
C619        C620   1.423   1_556  A
O625        C947   1.282   1_545  A
O626       Ni789   1.926   1_554  S
O626        C636   1.282       .  A
O627       Ni945   1.909       .  S
O627        C793   1.279       .  A
O628        C638   1.279       .  A
O629       Ni946   1.923       .  S
O629        C794   1.281   1_564  A
O630        C637   1.281       .  A
O631        C948   1.281       .  A
O632       Ni790   1.914       .  S
O632        C635   1.279       .  A
Ni633       O782   1.926       .  S
Ni633       O939   1.909       .  S
Ni634       O941   1.923       .  S
Ni634       O788   1.914   1_554  S
C635        O937   1.282       .  A
C635        C755   1.477       .  S
C636        O943   1.281   1_545  A
C636        C745   1.488       .  S
C637        O783   1.279       .  A
C637        C762   1.506       .  S
C638        O785   1.281   1_545  A
C638        C775   1.506       .  S
N639        C643   1.369       .  A
N639        C640   1.370       .  A
N639        C732   1.457       .  S
C640        C772   1.494       .  S
C640        C797   1.383       .  A
C641        C796   1.383       .  A
C641        C642   1.367       .  A
C641        H644   1.085       .  S
C642        C799   1.380       .  A
C642        H645   1.084       .  S
C643        C722   1.490       .  S
C643        C798   1.380       .  A
N646        C650   1.368   1_554  A
N646        C647   1.367   1_554  A
N646        C715   1.457       .  S
C647        C765   1.491       .  S
C647        C804   1.382       .  A
C648        C803   1.382       .  A
C648        C649   1.370       .  A
C648        H651   1.085       .  S
C649        C806   1.382       .  A
C649        H652   1.084       .  S
C650        C725   1.490       .  S
C650        C805   1.382       .  A
O653       Ni661   1.923       .  S
O653        C663   1.282       .  A
O654       Ni661   1.919       .  S
O654        C664   1.280       .  A
O655       Ni661   1.923       .  S
O655        C665   1.281       .  A
O656       Ni661   1.934       .  S
O656        C666   1.284       .  A
O657       Ni662   1.907       .  S
O657        C666   1.279       .  A
O658       Ni662   1.914       .  S
O658        C665   1.281       .  A
O659       Ni662   1.927       .  S
O659        C664   1.283       .  A
O660       Ni662   1.919       .  S
O660        C663   1.281       .  A
Ni661      Ni662   2.380       .  S
C663        C735   1.491       .  S
C664        C712   1.506       .  S
C665        C705   1.498       .  S
C666        C695   1.479       .  S
N667        C671   1.366       .  A
N667        C668   1.365       .  A
N667        C742   1.454       .  S
C668        C702   1.493       .  S
C668        C669   1.386       .  A
C669        C670   1.372       .  A
C669        H672   1.084       .  S
C670        C671   1.378       .  A
C670        H673   1.083       .  S
C671        C682   1.483   1_545  S
N674        C678   1.368       .  A
N674        C675   1.365       .  A
N674        C752   1.456       .  S
C675        C692   1.487       .  S
C675        C676   1.383       .  A
C676        C677   1.369       .  A
C676        H679   1.082       .  S
C677        C678   1.379       .  A
C677        H680   1.083       .  S
C678        C685   1.485       .  S
C681        C994   1.409       .  A
C681        C686   1.403       .  A
C681       Br688   1.931       .  S
C682        C993   1.409       .  A
C683        C684   1.407   1_445  A
C683       Br690   1.926       .  S
C684        C997   1.409       .  A
C684       Br689   1.923   1_565  S
C685        C996   1.409       .  A
C686       Br687   1.935       .  S
C691        C692   1.416       .  A
C691        C696   1.406       .  A
C691       Br698   1.939       .  S
C692        C693   1.412       .  A
C693        C694   1.409       .  A
C693       Br700   1.920       .  S
C694        C695   1.409       .  A
C694       Br699   1.933       .  S
C695        C696   1.407       .  A
C696       Br697   1.920       .  S
C701        C702   1.416       .  A
C701        C706   1.411       .  A
C701       Br708   1.938       .  S
C702        C703   1.409       .  A
C703        C704   1.408       .  A
C703       Br710   1.920       .  S
C704        C705   1.417       .  A
C704       Br709   1.931       .  S
C705        C706   1.419       .  A
C706       Br707   1.936       .  S
C711        C712   1.421       .  A
C711        C716   1.410       .  A
C711       Br718   1.937       .  S
C712        C713   1.421       .  A
C713        C714   1.413       .  A
C713       Br720   1.933       .  S
C714        C715   1.414       .  A
C714       Br719   1.927       .  S
C715        C716   1.413       .  A
C716       Br717   1.924       .  S
C721        C722   1.409       .  A
C721        C726   1.407       .  A
C721       Br728   1.924       .  S
C722        C879   1.417       .  A
C723        C878   1.417   1_554  A
C723        C724   1.408       .  A
C723       Br730   1.938       .  S
C724        C725   1.409   1_554  A
C724       Br729   1.923       .  S
C725        C882   1.416       .  A
C726        C881   1.416       .  A
C726       Br727   1.938       .  S
C731        C732   1.416       .  A
C731        C736   1.412       .  A
C731       Br738   1.925       .  S
C732        C733   1.418       .  A
C733        C734   1.411       .  A
C733       Br740   1.927       .  S
C734        C735   1.412       .  A
C734       Br739   1.935       .  S
C735        C736   1.414       .  A
C736       Br737   1.936       .  S
C741        C742   1.414       .  A
C741        C746   1.416       .  A
C741       Br748   1.921       .  S
C742        C743   1.415   1_545  A
C743        C744   1.407       .  A
C743      Br1062   1.925       .  S
C744        C745   1.412   1_565  A
C744      Br1061   1.938       .  S
C745        C746   1.413       .  A
Br749      C1056   1.938       .  S
Br750      C1055   1.925       .  S
C751        C752   1.421       .  A
C751       C1068   1.414       .  A
C751      Br1070   1.919       .  S
C752        C753   1.416       .  A
C753        C754   1.404       .  A
C753       Br760   1.921       .  S
C754        C755   1.404       .  A
C754       Br759   1.928   1_655  S
C755       C1068   1.405       .  A
C756       C1063   1.414       .  A
C756       C1067   1.405       .  A
C756       Br757   1.931   1_565  S
Br758      C1063   1.919       .  S
C761        C762   1.425       .  A
C761        C766   1.414       .  A
C761       Br768   1.936       .  S
C762        C763   1.420       .  A
C763        C764   1.405   1_554  A
C763      Br1238   1.938       .  S
C764        C765   1.411       .  A
C764       Br769   1.940       .  S
C765        C766   1.409   1_556  A
C766       Br767   1.926   1_554  S
Br770      C1231   1.938   1_545  S
C771        C772   1.417       .  A
C771        C776   1.412       .  A
C771       Br778   1.942       .  S
C772        C773   1.407       .  A
C773        C774   1.408       .  A
C773       Br780   1.922       .  S
C774        C775   1.423       .  A
C774       Br935   1.938       .  S
C775        C776   1.423       .  A
C776      Br1089   1.938   1_545  S
Br777      C1088   1.938       .  S
Br779       C930   1.938       .  S
O781       C1103   1.282   1_545  A
O782        C792   1.282       .  A
O783      Ni1101   1.909   1_554  S
O784        C794   1.279       .  A
O785      Ni1102   1.923       .  S
O786        C793   1.281       .  A
O787       C1104   1.281       .  A
O788        C791   1.279       .  A
Ni789      O1095   1.909   1_556  S
Ni790      O1097   1.923       .  S
C791       O1093   1.282       .  A
C791        C911   1.477       .  S
C792       O1099   1.281   1_545  A
C792        C901   1.488       .  S
C793        C918   1.506       .  S
C794        C931   1.506       .  S
N795        C799   1.369   1_556  A
N795        C796   1.370   1_556  A
N795        C888   1.457       .  S
C796        C928   1.494   1_554  S
C797        C798   1.367       .  A
C797        H800   1.085       .  S
C798        H801   1.084       .  S
C799        C878   1.490   1_554  S
N802        C806   1.368       .  A
N802        C803   1.367       .  A
N802        C871   1.457       .  S
C803        C921   1.491       .  S
C804        C805   1.370       .  A
C804        H807   1.085       .  S
C805        H808   1.084       .  S
C806        C881   1.490       .  S
O809       Ni817   1.923       .  S
O809        C819   1.282       .  A
O810       Ni817   1.919       .  S
O810        C820   1.280       .  A
O811       Ni817   1.923       .  S
O811        C821   1.281       .  A
O812       Ni817   1.934       .  S
O812        C822   1.284       .  A
O813       Ni818   1.907       .  S
O813        C822   1.279       .  A
O814       Ni818   1.914       .  S
O814        C821   1.281       .  A
O815       Ni818   1.927       .  S
O815        C820   1.283       .  A
O816       Ni818   1.919       .  S
O816        C819   1.281       .  A
Ni817      Ni818   2.380       .  S
C819        C891   1.491       .  S
C820        C868   1.506       .  S
C821        C861   1.498       .  S
C822        C851   1.479       .  S
N823        C827   1.366       .  A
N823        C824   1.365       .  A
N823        C898   1.454       .  S
C824        C858   1.493       .  S
C824        C825   1.386       .  A
C825        C826   1.372       .  A
C825        H828   1.084       .  S
C826        C827   1.378       .  A
C826        H829   1.083       .  S
C827        C838   1.483   1_545  S
N830        C834   1.368       .  A
N830        C831   1.365       .  A
N830        C908   1.456       .  S
C831        C848   1.487       .  S
C831        C832   1.383       .  A
C832        C833   1.369       .  A
C832        H835   1.082       .  S
C833        C834   1.379       .  A
C833        H836   1.083       .  S
C834        C841   1.485       .  S
C837       C1150   1.409       .  A
C837        C842   1.403       .  A
C837       Br844   1.931       .  S
C838       C1149   1.409       .  A
C839        C840   1.407   1_445  A
C839       Br846   1.926       .  S
C840       C1153   1.409       .  A
C840       Br845   1.923   1_565  S
C841       C1152   1.409       .  A
C842       Br843   1.935       .  S
C847        C848   1.416       .  A
C847        C852   1.406       .  A
C847       Br854   1.939       .  S
C848        C849   1.412       .  A
C849        C850   1.409       .  A
C849       Br856   1.920       .  S
C850        C851   1.409       .  A
C850       Br855   1.933       .  S
C851        C852   1.407       .  A
C852       Br853   1.920       .  S
C857        C858   1.416       .  A
C857        C862   1.411       .  A
C857       Br864   1.938       .  S
C858        C859   1.409       .  A
C859        C860   1.408       .  A
C859       Br866   1.920       .  S
C860        C861   1.417       .  A
C860       Br865   1.931       .  S
C861        C862   1.419       .  A
C862       Br863   1.936       .  S
C867        C868   1.421       .  A
C867        C872   1.410       .  A
C867       Br874   1.937       .  S
C868        C869   1.421       .  A
C869        C870   1.413       .  A
C869       Br876   1.933       .  S
C870        C871   1.414       .  A
C870       Br875   1.927       .  S
C871        C872   1.413       .  A
C872       Br873   1.924       .  S
C877        C878   1.409       .  A
C877        C882   1.407       .  A
C877       Br884   1.924       .  S
C879        C880   1.408       .  A
C879       Br886   1.938       .  S
C880        C881   1.409       .  A
C880       Br885   1.923       .  S
C882       Br883   1.938       .  S
C887        C888   1.416       .  A
C887        C892   1.412       .  A
C887       Br894   1.925       .  S
C888        C889   1.418       .  A
C889        C890   1.411       .  A
C889       Br896   1.927       .  S
C890        C891   1.412       .  A
C890       Br895   1.935       .  S
C891        C892   1.414       .  A
C892       Br893   1.936       .  S
C897        C898   1.414       .  A
C897        C902   1.416       .  A
C897       Br904   1.921       .  S
C898        C899   1.415   1_545  A
C899        C900   1.407       .  A
C899      Br1218   1.925       .  S
C900        C901   1.412   1_565  A
C900      Br1217   1.938       .  S
C901        C902   1.413       .  A
Br905      C1212   1.938       .  S
Br906      C1211   1.925       .  S
C907        C908   1.421       .  A
C907       C1224   1.414       .  A
C907      Br1226   1.919       .  S
C908        C909   1.416       .  A
C909        C910   1.404       .  A
C909       Br916   1.921       .  S
C910        C911   1.404       .  A
C910       Br915   1.928   1_655  S
C911       C1224   1.405       .  A
C912       C1219   1.414       .  A
C912       C1223   1.405       .  A
C912       Br913   1.931   1_565  S
Br914      C1219   1.919       .  S
C917        C918   1.425       .  A
C917        C922   1.414       .  A
C917       Br924   1.936       .  S
C918        C919   1.420       .  A
C919        C920   1.405       .  A
C919      Br1082   1.938       .  S
C920        C921   1.411       .  A
C920       Br925   1.940       .  S
C921        C922   1.409       .  A
C922       Br923   1.926       .  S
Br926      C1075   1.938   1_545  S
C927        C928   1.417   1_554  A
C927        C932   1.412       .  A
C927       Br934   1.942       .  S
C928        C929   1.407       .  A
C929        C930   1.408       .  A
C929       Br936   1.922       .  S
C930        C931   1.423       .  A
C931        C932   1.423   1_556  A
C932      Br1245   1.938   1_545  S
Br933      C1244   1.938       .  S
O938      Ni1101   1.926   1_554  S
O938        C948   1.282       .  A
O939       C1105   1.279   1_545  A
O940        C950   1.279       .  A
O941       C1106   1.281   1_554  A
O942        C949   1.281       .  A
O944      Ni1102   1.914       .  S
O944        C947   1.279       .  A
Ni945      O1094   1.926       .  S
Ni946      O1100   1.914   1_554  S
C947       C1067   1.477       .  S
C948       C1057   1.488       .  S
C949       O1095   1.279   1_565  A
C949       C1074   1.506       .  S
C950       O1097   1.281       .  A
C950       C1087   1.506       .  S
N951        C955   1.369       .  A
N951        C952   1.370       .  A
N951       C1044   1.457       .  S
C952       C1084   1.494       .  S
C952       C1109   1.383       .  A
C953       C1108   1.383       .  A
C953        C954   1.367       .  A
C953        H956   1.085       .  S
C954       C1111   1.380       .  A
C954        H957   1.084       .  S
C955       C1034   1.490       .  S
C955       C1110   1.380       .  A
N958        C962   1.368   1_554  A
N958        C959   1.367   1_554  A
N958       C1027   1.457       .  S
C959       C1077   1.491       .  S
C959       C1116   1.382       .  A
C960       C1115   1.382       .  A
C960        C961   1.370       .  A
C960        H963   1.085       .  S
C961       C1118   1.382       .  A
C961        H964   1.084       .  S
C962       C1037   1.490       .  S
C962       C1117   1.382       .  A
O965       Ni973   1.923       .  S
O965        C975   1.282       .  A
O966       Ni973   1.919       .  S
O966        C976   1.280       .  A
O967       Ni973   1.923       .  S
O967        C977   1.281       .  A
O968       Ni973   1.934       .  S
O968        C978   1.284       .  A
O969       Ni974   1.907       .  S
O969        C978   1.279       .  A
O970       Ni974   1.914       .  S
O970        C977   1.281       .  A
O971       Ni974   1.927       .  S
O971        C976   1.283       .  A
O972       Ni974   1.919       .  S
O972        C975   1.281       .  A
Ni973      Ni974   2.380       .  S
C975       C1047   1.491       .  S
C976       C1024   1.506       .  S
C977       C1017   1.498       .  S
C978       C1007   1.479       .  S
N979        C983   1.366       .  A
N979        C980   1.365       .  A
N979       C1054   1.454       .  S
C980       C1014   1.493       .  S
C980        C981   1.386       .  A
C981        C982   1.372       .  A
C981        H984   1.084       .  S
C982        C983   1.378       .  A
C982        H985   1.083       .  S
C983        C994   1.483       .  S
N986        C990   1.368       .  A
N986        C987   1.365       .  A
N986       C1064   1.456       .  S
C987       C1004   1.487       .  S
C987        C988   1.383       .  A
C988        C989   1.369       .  A
C988        H991   1.082       .  S
C989        C990   1.379       .  A
C989        H992   1.083       .  S
C990        C997   1.485       .  S
C993        C998   1.403       .  A
C993      Br1000   1.931       .  S
C995        C996   1.407   1_455  A
C995      Br1002   1.926       .  S
C996      Br1001   1.923       .  S
C998       Br999   1.935       .  S
C1003      C1004   1.416       .  A
C1003      C1008   1.406       .  A
C1003     Br1010   1.939       .  S
C1004      C1005   1.412       .  A
C1005      C1006   1.409       .  A
C1005     Br1012   1.920       .  S
C1006      C1007   1.409       .  A
C1006     Br1011   1.933       .  S
C1007      C1008   1.407       .  A
C1008     Br1009   1.920       .  S
C1013      C1014   1.416       .  A
C1013      C1018   1.411       .  A
C1013     Br1020   1.938       .  S
C1014      C1015   1.409       .  A
C1015      C1016   1.408       .  A
C1015     Br1022   1.920       .  S
C1016      C1017   1.417       .  A
C1016     Br1021   1.931       .  S
C1017      C1018   1.419       .  A
C1018     Br1019   1.936       .  S
C1023      C1024   1.421       .  A
C1023      C1028   1.410       .  A
C1023     Br1030   1.937       .  S
C1024      C1025   1.421       .  A
C1025      C1026   1.413       .  A
C1025     Br1032   1.933       .  S
C1026      C1027   1.414       .  A
C1026     Br1031   1.927       .  S
C1027      C1028   1.413       .  A
C1028     Br1029   1.924       .  S
C1033      C1034   1.409       .  A
C1033      C1038   1.407       .  A
C1033     Br1040   1.924       .  S
C1034      C1191   1.417       .  A
C1035      C1190   1.417   1_554  A
C1035      C1036   1.408       .  A
C1035     Br1042   1.938       .  S
C1036      C1037   1.409   1_554  A
C1036     Br1041   1.923       .  S
C1037      C1194   1.416       .  A
C1038      C1193   1.416       .  A
C1038     Br1039   1.938       .  S
C1043      C1044   1.416       .  A
C1043      C1048   1.412       .  A
C1043     Br1050   1.925       .  S
C1044      C1045   1.418       .  A
C1045      C1046   1.411       .  A
C1045     Br1052   1.927       .  S
C1046      C1047   1.412       .  A
C1046     Br1051   1.935       .  S
C1047      C1048   1.414       .  A
C1048     Br1049   1.936       .  S
C1053      C1054   1.414       .  A
C1053      C1058   1.416       .  A
C1053     Br1060   1.921       .  S
C1054      C1055   1.415       .  A
C1055      C1056   1.407       .  A
C1056      C1057   1.412       .  A
C1057      C1058   1.413       .  A
C1063      C1064   1.421       .  A
C1064      C1065   1.416       .  A
C1065      C1066   1.404       .  A
C1065     Br1072   1.921       .  S
C1066      C1067   1.404       .  A
C1066     Br1071   1.928   1_655  S
C1068     Br1069   1.931       .  S
C1073      C1074   1.425       .  A
C1073      C1078   1.414       .  A
C1073     Br1080   1.936       .  S
C1074      C1075   1.420       .  A
C1075      C1076   1.405   1_554  A
C1076      C1077   1.411       .  A
C1076     Br1081   1.940       .  S
C1077      C1078   1.409   1_556  A
C1078     Br1079   1.926   1_554  S
C1083      C1084   1.417       .  A
C1083      C1088   1.412       .  A
C1083     Br1090   1.942       .  S
C1084      C1085   1.407       .  A
C1085      C1086   1.408       .  A
C1085     Br1092   1.922       .  S
C1086      C1087   1.423       .  A
C1086     Br1247   1.938       .  S
C1087      C1088   1.423       .  A
Br1091     C1242   1.938       .  S
O1094      C1104   1.282       .  A
O1096      C1106   1.279       .  A
O1098      C1105   1.281       .  A
O1100      C1103   1.279       .  A
C1103      C1223   1.477       .  S
C1104      C1213   1.488       .  S
C1105      C1230   1.506       .  S
C1106      C1243   1.506       .  S
N1107      C1111   1.369   1_556  A
N1107      C1108   1.370   1_556  A
N1107      C1200   1.457       .  S
C1108      C1240   1.494   1_554  S
C1109      C1110   1.367       .  A
C1109      H1112   1.085       .  S
C1110      H1113   1.084       .  S
C1111      C1190   1.490   1_554  S
N1114      C1118   1.368       .  A
N1114      C1115   1.367       .  A
N1114      C1183   1.457       .  S
C1115      C1233   1.491       .  S
C1116      C1117   1.370       .  A
C1116      H1119   1.085       .  S
C1117      H1120   1.084       .  S
C1118      C1193   1.490       .  S
O1121     Ni1129   1.923       .  S
O1121      C1131   1.282       .  A
O1122     Ni1129   1.919       .  S
O1122      C1132   1.280       .  A
O1123     Ni1129   1.923       .  S
O1123      C1133   1.281       .  A
O1124     Ni1129   1.934       .  S
O1124      C1134   1.284       .  A
O1125     Ni1130   1.907       .  S
O1125      C1134   1.279       .  A
O1126     Ni1130   1.914       .  S
O1126      C1133   1.281       .  A
O1127     Ni1130   1.927       .  S
O1127      C1132   1.283       .  A
O1128     Ni1130   1.919       .  S
O1128      C1131   1.281       .  A
Ni1129    Ni1130   2.380       .  S
C1131      C1203   1.491       .  S
C1132      C1180   1.506       .  S
C1133      C1173   1.498       .  S
C1134      C1163   1.479       .  S
N1135      C1139   1.366       .  A
N1135      C1136   1.365       .  A
N1135      C1210   1.454       .  S
C1136      C1170   1.493       .  S
C1136      C1137   1.386       .  A
C1137      C1138   1.372       .  A
C1137      H1140   1.084       .  S
C1138      C1139   1.378       .  A
C1138      H1141   1.083       .  S
C1139      C1150   1.483       .  S
N1142      C1146   1.368       .  A
N1142      C1143   1.365       .  A
N1142      C1220   1.456       .  S
C1143      C1160   1.487       .  S
C1143      C1144   1.383       .  A
C1144      C1145   1.369       .  A
C1144      H1147   1.082       .  S
C1145      C1146   1.379       .  A
C1145      H1148   1.083       .  S
C1146      C1153   1.485       .  S
C1149      C1154   1.403       .  A
C1149     Br1156   1.931       .  S
C1151      C1152   1.407   1_455  A
C1151     Br1158   1.926       .  S
C1152     Br1157   1.923       .  S
C1154     Br1155   1.935       .  S
C1159      C1160   1.416       .  A
C1159      C1164   1.406       .  A
C1159     Br1166   1.939       .  S
C1160      C1161   1.412       .  A
C1161      C1162   1.409       .  A
C1161     Br1168   1.920       .  S
C1162      C1163   1.409       .  A
C1162     Br1167   1.933       .  S
C1163      C1164   1.407       .  A
C1164     Br1165   1.920       .  S
C1169      C1170   1.416       .  A
C1169      C1174   1.411       .  A
C1169     Br1176   1.938       .  S
C1170      C1171   1.409       .  A
C1171      C1172   1.408       .  A
C1171     Br1178   1.920       .  S
C1172      C1173   1.417       .  A
C1172     Br1177   1.931       .  S
C1173      C1174   1.419       .  A
C1174     Br1175   1.936       .  S
C1179      C1180   1.421       .  A
C1179      C1184   1.410       .  A
C1179     Br1186   1.937       .  S
C1180      C1181   1.421       .  A
C1181      C1182   1.413       .  A
C1181     Br1188   1.933       .  S
C1182      C1183   1.414       .  A
C1182     Br1187   1.927       .  S
C1183      C1184   1.413       .  A
C1184     Br1185   1.924       .  S
C1189      C1190   1.409       .  A
C1189      C1194   1.407       .  A
C1189     Br1196   1.924       .  S
C1191      C1192   1.408       .  A
C1191     Br1198   1.938       .  S
C1192      C1193   1.409       .  A
C1192     Br1197   1.923       .  S
C1194     Br1195   1.938       .  S
C1199      C1200   1.416       .  A
C1199      C1204   1.412       .  A
C1199     Br1206   1.925       .  S
C1200      C1201   1.418       .  A
C1201      C1202   1.411       .  A
C1201     Br1208   1.927       .  S
C1202      C1203   1.412       .  A
C1202     Br1207   1.935       .  S
C1203      C1204   1.414       .  A
C1204     Br1205   1.936       .  S
C1209      C1210   1.414       .  A
C1209      C1214   1.416       .  A
C1209     Br1216   1.921       .  S
C1210      C1211   1.415       .  A
C1211      C1212   1.407       .  A
C1212      C1213   1.412       .  A
C1213      C1214   1.413       .  A
C1219      C1220   1.421       .  A
C1220      C1221   1.416       .  A
C1221      C1222   1.404       .  A
C1221     Br1228   1.921       .  S
C1222      C1223   1.404       .  A
C1222     Br1227   1.928   1_655  S
C1224     Br1225   1.931       .  S
C1229      C1230   1.425       .  A
C1229      C1234   1.414       .  A
C1229     Br1236   1.936       .  S
C1230      C1231   1.420       .  A
C1231      C1232   1.405       .  A
C1232      C1233   1.411       .  A
C1232     Br1237   1.940       .  S
C1233      C1234   1.409       .  A
C1234     Br1235   1.926       .  S
C1239      C1240   1.417   1_554  A
C1239      C1244   1.412       .  A
C1239     Br1246   1.942       .  S
C1240      C1241   1.407       .  A
C1241      C1242   1.408       .  A
C1241     Br1248   1.922       .  S
C1242      C1243   1.423       .  A
C1243      C1244   1.423   1_556  A
