geometry optimzed in LAMMPS
_audit_creation_date              2020-11-30 
_audit_creation_method            'lammps2cif' 
_symmetry_space_group_name_H-M    'P1' 
_symmetry_Int_Tables_number       1 
_symmetry_cell_setting            triclinic 
loop_ 
_symmetry_equiv_pos_as_xyz 
  x,y,z 
_cell_length_a                    53.7095858 
_cell_length_b                    53.654075361835076 
_cell_length_c                    53.750940896652224 
_cell_angle_alpha                 89.80328654701283 
_cell_angle_beta                  89.78629240759571 
_cell_angle_gamma                 89.9111158651989 
loop_ 
_atom_site_label 
_atom_site_type_symbol 
_atom_site_fract_x 
_atom_site_fract_y 
_atom_site_fract_z 
_atom_site_charge 
C1          C  0.98007427  0.01129071  0.00044949     0.02800
C2          C  0.00097720  0.02248515  0.98782699     0.02800
C3          C  0.01933974  0.00515403  0.97923818     0.02800
C4          C  0.02402487  0.98339201  0.99388848     0.02800
C5          C  0.00719991  0.97647271  0.01323531     0.02800
C6          C  0.98480665  0.99070422  0.01716713     0.02800
O7          O  0.01782749  0.19586518  0.87256810    -0.79600
O8          O  0.97555875  0.29960922  0.85831493    -0.79600
O9          O  0.95499956  0.24538135  0.84287746    -0.79600
O10         O  0.03519060  0.24362017  0.84096345    -0.79600
O11         O  0.94007476  0.26909738  0.87177378    -0.79700
O12         O  0.05329697  0.22998023  0.87395931    -0.79600
O13         O  0.99841606  0.27763809  0.83239932    -0.79600
O14         O  0.99313637  0.21008001  0.84297746    -0.79600
C15         C  0.00944922  0.19476496  0.85039540     1.10100
C16         C  0.98381973  0.29554067  0.83635971     1.10000
C17         C  0.93769214  0.25933153  0.85063437     1.10100
C18         C  0.05434476  0.23464845  0.85081251     1.10000
O19         O  0.03065569  0.25309921  0.91735659    -0.79600
O20         O  0.96345000  0.25803501  0.91880767    -0.79700
O21         O  0.97719857  0.19377053  0.89181931    -0.79600
O22         O  0.01620274  0.30705594  0.87432526    -0.79600
O23         O  0.99816867  0.29481838  0.90832550    -0.79700
O24         O  0.99671766  0.21459918  0.91995233    -0.79600
O25         O  0.04878922  0.27237486  0.88616683    -0.79600
O26         O  0.94417540  0.23074128  0.89490834    -0.79600
Co27       Co  0.02209741  0.22559424  0.89537843     1.51500
Co28       Co  0.97182269  0.27792050  0.88926675     1.51700
Co29       Co  0.96970512  0.22254729  0.86805730     1.51600
Co30       Co  0.02232230  0.27267555  0.85922211     1.51500
O31         O  0.99639184  0.24960893  0.87791609    -1.41500
C32         C  0.04755695  0.26730952  0.90940701     1.10000
C33         C  0.94665302  0.24188324  0.91572960     1.10100
C34         C  0.98510284  0.19512211  0.91396390     1.10000
C35         C  0.00886275  0.31186195  0.89621258     1.10000
O36         O  0.85964123  0.02635169  0.19926342    -0.79600
O37         O  0.86438710  0.97381102  0.30062666    -0.79600
O38         O  0.83908386  0.95968221  0.24703810    -0.79600
O39         O  0.83770488  0.04058525  0.25536141    -0.79600
O40         O  0.87125341  0.94199577  0.26363826    -0.79700
O41         O  0.86809429  0.05845237  0.23580008    -0.79600
O42         O  0.83543283  0.99857695  0.28594646    -0.79600
O43         O  0.83320491  0.00017666  0.21653182    -0.79600
C44         C  0.83788474  0.01658735  0.20036093     1.10100
C45         C  0.84196148  0.98166328  0.30103859     1.10000
C46         C  0.84873675  0.94073392  0.25683277     1.10100
C47         C  0.84682896  0.06004214  0.24578782     1.10000
O48         O  0.91447924  0.03512118  0.24896097    -0.79600
O49         O  0.91624116  0.96799911  0.24778974    -0.79700
O50         O  0.87903585  0.98705489  0.19064348    -0.79600
O51         O  0.88175597  0.01437567  0.30856310    -0.79600
O52         O  0.91292507  0.99793276  0.28899176    -0.79700
O53         O  0.91019506  0.00439854  0.20851610    -0.79600
O54         O  0.88712934  0.05055494  0.27549078    -0.79600
O55         O  0.88851668  0.95102102  0.22302448    -0.79600
Co56       Co  0.88779053  0.02832935  0.22519882     1.51500
Co57       Co  0.89065000  0.97317594  0.27311016     1.51700
Co58       Co  0.86035898  0.97655574  0.22215820     1.51600
Co59       Co  0.86082175  0.02374317  0.27850278     1.51500
O60         O  0.87466103  0.00053761  0.24978158    -1.41500
C61         C  0.90850659  0.05110154  0.26505978     1.10000
C62         C  0.91083445  0.95268700  0.23096349     1.10100
C63         C  0.90116986  0.99511600  0.18916448     1.10000
C64         C  0.90436978  0.00775099  0.30849293     1.10000
C65         C  0.97618858  0.98584326  0.49860629     0.02800
C66         C  0.98351553  0.00508137  0.48152644     0.02800
C67         C  0.00447805  0.02011893  0.48738708     0.02800
C68         C  0.01996669  0.01323320  0.50773106     0.02800
C69         C  0.01471487  0.99123948  0.52183546     0.02800
C70         C  0.99565780  0.97470041  0.51321399     0.02800
O71         O  0.01622815  0.80448905  0.63067654    -0.79600
O72         O  0.97837340  0.69743493  0.63748065    -0.79600
O73         O  0.95710446  0.75062223  0.65998978    -0.79600
O74         O  0.03803759  0.75345970  0.65847350    -0.79600
O75         O  0.94145494  0.72903650  0.62988282    -0.79700
O76         O  0.05314321  0.77223512  0.62609559    -0.79600
O77         O  0.00140355  0.71811949  0.66418957    -0.79600
O78         O  0.99427820  0.78691122  0.66063094    -0.79600
C79         C  0.00883352  0.80386339  0.65327248     1.10100
C80         C  0.98684812  0.70045083  0.65949189     1.10000
C81         C  0.93960034  0.73722376  0.65181865     1.10100
C82         C  0.05564390  0.76548967  0.64852801     1.10000
O83         O  0.03161936  0.75109170  0.58160533    -0.79600
O84         O  0.96146011  0.74529899  0.58268313    -0.79700
O85         O  0.97581090  0.80560069  0.61270269    -0.79600
O86         O  0.01822138  0.69422410  0.61798943    -0.79600
O87         O  0.99827253  0.70956560  0.58674428    -0.79700
O88         O  0.99441983  0.78558836  0.58334485    -0.79600
O89         O  0.05115444  0.73005550  0.61084246    -0.79600
O90         O  0.94292328  0.76922882  0.61045439    -0.79600
Co91       Co  0.02145194  0.77616684  0.60591622     1.51500
Co92       Co  0.97243712  0.72270619  0.60942279     1.51700
Co93       Co  0.97004747  0.77565923  0.63580809     1.51600
Co94       Co  0.02466662  0.72631741  0.63749029     1.51500
O95         O  0.99717423  0.75020476  0.62241322    -1.41500
C96         C  0.04933990  0.73725423  0.58835050     1.10000
C97         C  0.94431277  0.76038095  0.58852593     1.10100
C98         C  0.98293138  0.80476139  0.59016955     1.10000
C99         C  0.01050341  0.69179216  0.59580412     1.10000
O100        O  0.19874323  0.86775407  0.01826229    -0.79600
O101        O  0.30394234  0.85593218  0.97887466    -0.79600
O102        O  0.25124209  0.83481457  0.96048962    -0.79600
O103        O  0.24849538  0.84089240  0.04090374    -0.79600
O104        O  0.27307308  0.86298216  0.94191713    -0.79700
O105        O  0.23107028  0.87474716  0.05429274    -0.79600
O106        O  0.28350872  0.83096548  0.00419840    -0.79600
O107        O  0.21604483  0.83673263  0.99758349    -0.79600
C108        C  0.19909518  0.84487292  0.01164182     1.10100
C109        C  0.30106455  0.83464951  0.98904401     1.10000
C110        C  0.26335105  0.84151334  0.94157916     1.10100
C111        C  0.23706263  0.85229732  0.05803051     1.10000
O112        O  0.25304647  0.91751533  0.03029744    -0.79600
O113        O  0.25932262  0.91204610  0.96036523    -0.79700
O114        O  0.19770397  0.88324761  0.97662807    -0.79600
O115        O  0.30997864  0.87655608  0.01803297    -0.79600
O116        O  0.29610778  0.90752624  0.99611044    -0.79700
O117        O  0.21633816  0.91439901  0.99382116    -0.79600
O118        O  0.27388410  0.88813219  0.05009459    -0.79600
O119        O  0.23404456  0.88444890  0.94373048    -0.79600
Co120      Co  0.22720890  0.89292225  0.02157988     1.51500
Co121      Co  0.28062660  0.88469170  0.97187944     1.51700
Co122      Co  0.22725859  0.86013959  0.97201736     1.51600
Co123      Co  0.27658630  0.85960043  0.02575270     1.51500
O124        O  0.25295438  0.87446957  0.99792812    -1.41500
C125        C  0.26647957  0.91068209  0.04839140     1.10000
C126        C  0.24385120  0.90607012  0.94381664     1.10100
C127        C  0.19741602  0.90591427  0.98304186     1.10000
C128        C  0.31369749  0.89778007  0.00817780     1.10000
O129        O  0.99683296  0.78586619  0.16504961    -0.79600
O130        O  0.00568937  0.71515888  0.16541437    -0.79600
O131        O  0.94381996  0.76040470  0.13316232    -0.79600
O132        O  0.06003097  0.73909187  0.13148267    -0.79600
O133        O  0.96352653  0.74393689  0.16427960    -0.79700
O134        O  0.04073626  0.75614244  0.16289731    -0.79600
O135        O  0.03018213  0.70051158  0.13638521    -0.79600
O136        O  0.97237421  0.79948367  0.13537425    -0.79600
C137        C  0.97976988  0.80055601  0.15774620     1.10100
C138        C  0.02201483  0.69984027  0.15864018     1.10000
C139        C  0.94402876  0.75382744  0.15589270     1.10100
C140        C  0.06044925  0.74682730  0.15378801     1.10000
O141        O  0.05001793  0.77856241  0.11370687    -0.79600
O142        O  0.95138895  0.72077125  0.11587995    -0.79700
O143        O  0.99556457  0.78808937  0.08715469    -0.79600
O144        O  0.00719375  0.71013165  0.08803403    -0.79600
O145        O  0.98998240  0.69074945  0.11931587    -0.79700
O146        O  0.01214987  0.80825663  0.11807858    -0.79600
O147        O  0.03547756  0.75350315  0.08516929    -0.79600
O148        O  0.96699552  0.74470344  0.08668208    -0.79600
Co149      Co  0.02289324  0.77921874  0.13983999     1.51500
Co150      Co  0.97966452  0.72043975  0.14083116     1.51700
Co151      Co  0.97243750  0.77120010  0.11077763     1.51600
Co152      Co  0.03040161  0.72785883  0.11063592     1.51500
O153        O  0.00138264  0.74966151  0.12566379    -1.41500
C154        C  0.05052876  0.77026102  0.09152324     1.10000
C155        C  0.95047159  0.72968920  0.09387837     1.10100
C156        C  0.00537563  0.80774247  0.09551816     1.10000
C157        C  0.99746187  0.69054328  0.09685136     1.10000
C158        C  0.24138738  0.72643577  0.25020381     0.02800
C159        C  0.23217416  0.74427959  0.23282682     0.02800
C160        C  0.24745893  0.76467453  0.22569938     0.02800
C161        C  0.26877696  0.77038501  0.24042735     0.02800
C162        C  0.27798050  0.75291129  0.25845691     0.02800
C163        C  0.26293750  0.73176422  0.26474441     0.02800
O164        O  0.21446044  0.66674470  0.50232287    -0.79600
O165        O  0.28566809  0.66565277  0.49343332    -0.79600
O166        O  0.23797713  0.63258020  0.55541008    -0.79600
O167        O  0.26217517  0.63380694  0.44007249    -0.79600
O168        O  0.25507391  0.66432735  0.53651481    -0.79700
O169        O  0.24498278  0.66569156  0.45855369    -0.79600
O170        O  0.29993611  0.63554501  0.46982438    -0.79600
O171        O  0.19972143  0.63665196  0.52590154    -0.79600
C172        C  0.19943193  0.65929870  0.51907644     1.10100
C173        C  0.30129743  0.65782609  0.47751200     1.10000
C174        C  0.24536267  0.65504730  0.55591844     1.10100
C175        C  0.25535191  0.65647161  0.43940993     1.10000
O176        O  0.22146941  0.61802475  0.44696527    -0.79600
O177        O  0.27727175  0.61504292  0.54674352    -0.79700
O178        O  0.21114863  0.58915664  0.50196936    -0.79600
O179        O  0.28702681  0.58775731  0.49258660    -0.79600
O180        O  0.30673122  0.61865593  0.50970534    -0.79700
O181        O  0.19170721  0.62073126  0.48541926    -0.79600
O182        O  0.24448430  0.58797597  0.46230284    -0.79600
O183        O  0.25303628  0.58637565  0.53098342    -0.79600
Co184      Co  0.22092760  0.64260582  0.47539794     1.51500
Co185      Co  0.27828195  0.64098870  0.51953727     1.51700
Co186      Co  0.22745886  0.61153649  0.52585180     1.51600
Co187      Co  0.27134635  0.61152098  0.46893054     1.51500
O188        O  0.24945811  0.62694327  0.49734712    -1.41500
C189        C  0.22877050  0.59548546  0.44645016     1.10000
C190        C  0.26954314  0.59264963  0.54621946     1.10100
C191        C  0.19192451  0.59789226  0.49178316     1.10000
C192        C  0.30635660  0.59599714  0.50309662     1.10000
C193        C  0.23176004  0.76797406  0.75548021     0.02800
C194        C  0.22496246  0.75266684  0.73468333     0.02800
C195        C  0.24097223  0.73291052  0.72683057     0.02800
C196        C  0.26139097  0.72547153  0.74219439     0.02800
C197        C  0.26955788  0.74186087  0.76143605     0.02800
C198        C  0.25424810  0.76252653  0.76904808     0.02800
O199        O  0.44707008  0.77922611  0.88555800    -0.79600
O200        O  0.54779556  0.72257537  0.87622837    -0.79600
O201        O  0.49453609  0.71293341  0.91146219    -0.79600
O202        O  0.50583405  0.78798330  0.91050524    -0.79600
O203        O  0.50918137  0.69378473  0.87874529    -0.79700
O204        O  0.48559732  0.80779333  0.88117118    -0.79600
O205        O  0.53595891  0.74511159  0.90772982    -0.79600
O206        O  0.46492507  0.75652080  0.91425456    -0.79600
C207        C  0.44894729  0.77281908  0.90820399     1.10100
C208        C  0.55109938  0.72964630  0.89850406     1.10000
C209        C  0.50393230  0.69354761  0.90180283     1.10100
C210        C  0.49478195  0.80745392  0.90293326     1.10000
O211        O  0.49885895  0.78795094  0.83285609    -0.79600
O212        O  0.48725273  0.71590634  0.83443007    -0.79700
O213        O  0.43870709  0.73915522  0.86991950    -0.79600
O214        O  0.55278077  0.76251085  0.85818645    -0.79600
O215        O  0.52905151  0.74562085  0.83000517    -0.79700
O216        O  0.45547919  0.75664697  0.83699216    -0.79600
O217        O  0.52419276  0.80100199  0.86176548    -0.79600
O218        O  0.46732411  0.70039773  0.86638530    -0.79600
Co219      Co  0.47379371  0.78004831  0.85906419     1.51500
Co220      Co  0.51643258  0.72214734  0.85523654     1.51700
Co221      Co  0.46906210  0.72933905  0.89012891     1.51600
Co222      Co  0.52694012  0.77202413  0.88465675     1.51500
O223        O  0.49651417  0.75091731  0.87231213    -1.41500
C224        C  0.51625607  0.80243291  0.83977396     1.10000
C225        C  0.47227981  0.70004099  0.84329791     1.10100
C226        C  0.43700224  0.74597656  0.84731716     1.10000
C227        C  0.54949932  0.75540781  0.83581041     1.10000
C228        C  0.73759295  0.27186760  0.73621756     0.02800
C229        C  0.75852709  0.27711664  0.75183728     0.02800
C230        C  0.76587878  0.25930195  0.77031494     0.02800
C231        C  0.74929242  0.23955371  0.77701820     0.02800
C232        C  0.72759554  0.23504174  0.76260996     0.02800
C233        C  0.72148735  0.25162624  0.74273697     0.02800
O234        O  0.88688794  0.44803249  0.77323861    -0.79600
O235        O  0.89467141  0.55224576  0.72691478    -0.79600
O236        O  0.91685191  0.49710758  0.71059633    -0.79600
O237        O  0.91896368  0.49847975  0.78773805    -0.79600
O238        O  0.88681772  0.51841442  0.69371925    -0.79700
O239        O  0.88657652  0.48329859  0.80663666    -0.79600
O240        O  0.92321149  0.53264935  0.74881443    -0.79600
O241        O  0.91703768  0.46140858  0.74905280    -0.79600
C242        C  0.90878788  0.44562343  0.76474737     1.10100
C243        C  0.91719504  0.54975440  0.73380278     1.10000
C244        C  0.90893916  0.50996788  0.69263766     1.10100
C245        C  0.90963304  0.48857979  0.80691030     1.10000
O246        O  0.84146803  0.50464993  0.78540378    -0.79600
O247        O  0.83904530  0.50494321  0.71676283    -0.79700
O248        O  0.86934725  0.44550322  0.73248333    -0.79600
O249        O  0.87951284  0.55843582  0.76802563    -0.79600
O250        O  0.84622379  0.54357356  0.75074498    -0.79700
O251        O  0.83971633  0.46389126  0.75273295    -0.79600
O252        O  0.87273332  0.52485500  0.80224084    -0.79600
O253        O  0.86563554  0.47989451  0.69810595    -0.79600
Co254      Co  0.86405293  0.47733580  0.77694604     1.51500
Co255      Co  0.86675314  0.52742522  0.72456798     1.51700
Co256      Co  0.89221777  0.47371689  0.72473189     1.51600
Co257      Co  0.89813558  0.52597711  0.77444960     1.51500
O258        O  0.88031266  0.50099831  0.75016191    -1.41500
C259        C  0.84958346  0.51968689  0.80144541     1.10000
C260        C  0.84381764  0.48944212  0.69978535     1.10100
C261        C  0.84751242  0.44495513  0.74100909     1.10000
C262        C  0.85686509  0.56124059  0.76204863     1.10000
O263        O  0.99174713  0.21652585  0.33437915    -0.79600
O264        O  0.00873194  0.28233461  0.33451667    -0.79600
O265        O  0.94114195  0.24343745  0.36806424    -0.79600
O266        O  0.05877865  0.25203192  0.36844970    -0.79600
O267        O  0.96152260  0.25852392  0.33632511    -0.79700
O268        O  0.03721049  0.23915116  0.33690074    -0.79600
O269        O  0.03414853  0.29426037  0.36407283    -0.79600
O270        O  0.96596998  0.20261193  0.36260324    -0.79600
C271        C  0.97400069  0.20252246  0.34018566     1.10100
C272        C  0.02718761  0.29525754  0.34151144     1.10000
C273        C  0.94119879  0.25110224  0.34578658     1.10100
C274        C  0.05788683  0.24541478  0.34578954     1.10000
O275        O  0.04416208  0.21414265  0.38536894    -0.79600
O276        O  0.95380124  0.28258679  0.38438967    -0.79700
O277        O  0.98986588  0.20976981  0.41192521    -0.79600
O278        O  0.00873991  0.28681125  0.41200816    -0.79600
O279        O  0.99513319  0.30799271  0.38015274    -0.79700
O280        O  0.00380301  0.18896804  0.38009259    -0.79600
O281        O  0.03192407  0.24015195  0.41437701    -0.79600
O282        O  0.96469973  0.25629934  0.41387885    -0.79600
Co283      Co  0.01760860  0.21761437  0.35938657     1.51500
Co284      Co  0.98149716  0.27984159  0.35906533     1.51700
Co285      Co  0.96849655  0.22962890  0.38901491     1.51600
Co286      Co  0.03051443  0.26672245  0.38952747     1.51500
O287        O  0.99945101  0.24861837  0.37441403    -1.41500
C288        C  0.04535405  0.22213873  0.40759609     1.10000
C289        C  0.95149595  0.27460200  0.40659947     1.10100
C290        C  0.99751827  0.18943058  0.40284115     1.10000
C291        C  0.00122764  0.30725852  0.40290975     1.10000
C292        C  0.23694066  0.27161002  0.24571599     0.02800
C293        C  0.22842623  0.25437845  0.26448764     0.02800
C294        C  0.24467348  0.23472000  0.27214848     0.02800
C295        C  0.26597690  0.22883977  0.25765847     0.02800
C296        C  0.27412370  0.24631122  0.23892009     0.02800
C297        C  0.25538108  0.26219492  0.22826009     0.02800
O298        O  0.21492775  0.33285084  0.99994297    -0.79600
O299        O  0.28431273  0.33140895  0.99439594    -0.79600
O300        O  0.22871204  0.36966199  0.94313118    -0.79600
O301        O  0.27025655  0.36282389  0.05510474    -0.79600
O302        O  0.24756885  0.33777148  0.95913312    -0.79700
O303        O  0.25104223  0.33391747  0.03539943    -0.79600
O304        O  0.30306693  0.35846751  0.01864697    -0.79600
O305        O  0.19639570  0.36292951  0.97925565    -0.79600
C306        C  0.19728549  0.34024121  0.98645146     1.10100
C307        C  0.30145214  0.33667180  0.00952346     1.10000
C308        C  0.23587580  0.34727370  0.94119955     1.10100
C309        C  0.26138452  0.34087665  0.05499268     1.10000
O310        O  0.23061762  0.38242262  0.05275341    -0.79600
O311        O  0.26982130  0.38641114  0.94620539    -0.79700
O312        O  0.21048007  0.41043656  0.00228767    -0.79600
O313        O  0.29206257  0.40829797  0.99980268    -0.79600
O314        O  0.30665887  0.37761805  0.97789805    -0.79700
O315        O  0.19406628  0.37841293  0.02079689    -0.79600
O316        O  0.25422758  0.41110800  0.03544639    -0.79600
O317        O  0.24772206  0.41486538  0.96588373    -0.79600
Co318      Co  0.22510676  0.35730286  0.02491794     1.51500
Co319      Co  0.27465179  0.35867662  0.97178939     1.51700
Co320      Co  0.22336416  0.38906348  0.97509946     1.51600
Co321      Co  0.27739903  0.38509277  0.02477443     1.51500
O322        O  0.25022060  0.37291054  0.99908270    -1.41500
C323        C  0.23989273  0.40437121  0.05280281     1.10000
C324        C  0.26150433  0.40870890  0.94781747     1.10100
C325        C  0.19244567  0.40100967  0.01419568     1.10000
C326        C  0.30949359  0.39926207  0.98669081     1.10000
C327        C  0.25277555  0.23513445  0.72957952     0.02800
C328        C  0.23104173  0.22974801  0.74385072     0.02800
C329        C  0.22368671  0.24609301  0.76350044     0.02800
C330        C  0.23925513  0.26673074  0.77018254     0.02800
C331        C  0.26121667  0.27190371  0.75577443     0.02800
C332        C  0.26864365  0.25505222  0.73668984     0.02800
O333        O  0.54879454  0.27295627  0.61267485    -0.79600
O334        O  0.44716677  0.22381950  0.61081956    -0.79600
O335        O  0.50058793  0.20904155  0.58774719    -0.79600
O336        O  0.49668832  0.28717700  0.58815368    -0.79600
O337        O  0.48223799  0.19003074  0.61828842    -0.79700
O338        O  0.51317958  0.30571708  0.61925256    -0.79600
O339        O  0.46450610  0.24910008  0.58361041    -0.79600
O340        O  0.53282513  0.24835406  0.58430492    -0.79600
C341        C  0.54878333  0.26427615  0.59060118     1.10100
C342        C  0.44824102  0.23310217  0.58890614     1.10000
C343        C  0.48999153  0.18987866  0.59604863     1.10100
C344        C  0.50739396  0.30603751  0.59644338     1.10000
O345        O  0.49721695  0.28142105  0.66572333    -0.79600
O346        O  0.49667959  0.21260446  0.66503151    -0.79700
O347        O  0.55577721  0.23270432  0.63077454    -0.79600
O348        O  0.43961323  0.26404810  0.62935818    -0.79600
O349        O  0.45639415  0.24488421  0.66072717    -0.79700
O350        O  0.53729917  0.25008034  0.66203506    -0.79600
O351        O  0.47306265  0.29932460  0.63796013    -0.79600
O352        O  0.52218238  0.19724565  0.63703943    -0.79600
Co353      Co  0.52190921  0.27492606  0.63961812     1.51500
Co354      Co  0.47287870  0.22054681  0.63845662     1.51700
Co355      Co  0.52511753  0.22395483  0.61036059     1.51600
Co356      Co  0.47111322  0.27289126  0.61022582     1.51500
O357        O  0.49769433  0.24798764  0.62486263    -1.41500
C358        C  0.48100936  0.29751902  0.66037715     1.10000
C359        C  0.51342750  0.19715234  0.65915498     1.10100
C360        C  0.55656981  0.24032208  0.65297953     1.10000
C361        C  0.43775789  0.25557625  0.65128044     1.10000
O362        O  0.33336641  0.99647205  0.21613328    -0.79600
O363        O  0.33294707  0.00232480  0.28524483    -0.79600
O364        O  0.37065455  0.94090391  0.23973803    -0.79600
O365        O  0.36896405  0.05785145  0.26024732    -0.79600
O366        O  0.33817329  0.95978582  0.25448427    -0.79700
O367        O  0.33738253  0.03790763  0.24584854    -0.79600
O368        O  0.36123724  0.02843031  0.29954073    -0.79600
O369        O  0.36203545  0.97076539  0.20202645    -0.79600
C370        C  0.33956094  0.97871355  0.20192436     1.10100
C371        C  0.33907281  0.02013173  0.29972710     1.10000
C372        C  0.34797831  0.94024347  0.24604008     1.10100
C373        C  0.34644000  0.05799106  0.25325559     1.10000
O374        O  0.38838088  0.04671506  0.22255023    -0.79600
O375        O  0.38833428  0.95137746  0.27877212    -0.79700
O376        O  0.41052739  0.99540292  0.20849150    -0.79600
O377        O  0.40941509  0.00428692  0.29384756    -0.79600
O378        O  0.37651773  0.98740558  0.30998869    -0.79700
O379        O  0.37781908  0.01115580  0.19113108    -0.79600
O380        O  0.41528797  0.03129642  0.24958889    -0.79600
O381        O  0.41582788  0.96719877  0.25244512    -0.79600
Co382      Co  0.35960180  0.02128766  0.22197855     1.51500
Co383      Co  0.35931359  0.97696997  0.27907965     1.51700
Co384      Co  0.38945301  0.97139652  0.22780325     1.51600
Co385      Co  0.38844531  0.02777354  0.27367516     1.51500
O386        O  0.37426555  0.99930973  0.25076542    -1.41500
C387        C  0.41037488  0.04589132  0.23190227     1.10000
C388        C  0.41059661  0.95205607  0.26973021     1.10100
C389        C  0.40028917  0.00489912  0.18946235     1.10000
C390        C  0.39867575  0.99422091  0.31239781     1.10000
C391        C  0.48725292  0.01725096  0.52099678     0.02800
C392        C  0.47217365  0.00952172  0.50081516     0.02800
C393        C  0.48095177  0.99188753  0.48325531     0.02800
C394        C  0.50274777  0.97766994  0.48863021     0.02800
C395        C  0.51821009  0.98546511  0.50887714     0.02800
C396        C  0.50939624  0.00371236  0.52624834     0.02800
O397        O  0.46496448  0.75427077  0.41569371    -0.79600
O398        O  0.53318061  0.74968052  0.42198675    -0.79600
O399        O  0.48088238  0.69528895  0.38468069    -0.79600
O400        O  0.52277954  0.80672845  0.38462059    -0.79600
O401        O  0.49784273  0.71111097  0.41755450    -0.79700
O402        O  0.50065735  0.79089425  0.41445494    -0.79600
O403        O  0.55449771  0.77086379  0.39392040    -0.79600
O404        O  0.44808838  0.73123854  0.38634179    -0.79600
C405        C  0.44845824  0.73921228  0.40867276     1.10100
C406        C  0.55105407  0.76390419  0.41641046     1.10000
C407        C  0.48620490  0.69320770  0.40752258     1.10100
C408        C  0.51305860  0.80886068  0.40595551     1.10000
O409        O  0.48331691  0.80457156  0.36409851    -0.79600
O410        O  0.52308383  0.69737772  0.37173149    -0.79700
O411        O  0.46610351  0.75138832  0.33827914    -0.79600
O412        O  0.54342700  0.74840504  0.34469289    -0.79600
O413        O  0.55831339  0.72999640  0.37729059    -0.79700
O414        O  0.44708836  0.77159518  0.36763502    -0.79600
O415        O  0.50803688  0.78551275  0.33748518    -0.79600
O416        O  0.50393214  0.71432048  0.33988934    -0.79600
Co417      Co  0.47637161  0.77797279  0.39045549     1.51500
Co418      Co  0.52562459  0.72469263  0.39659816     1.51700
Co419      Co  0.47708188  0.72559800  0.36258412     1.51600
Co420      Co  0.52983623  0.77535606  0.36533328     1.51500
O421        O  0.50213702  0.75088032  0.37872784    -1.41500
C422        C  0.49298716  0.80299753  0.34246109     1.10000
C423        C  0.51864418  0.69791131  0.34865933     1.10100
C424        C  0.44743661  0.76401214  0.34534649     1.10000
C425        C  0.56129882  0.73733877  0.35492766     1.10000
O426        O  0.59076154  0.96254004  0.74556358    -0.79600
O427        O  0.58336204  0.03049398  0.75124342    -0.79600
O428        O  0.62107467  0.97877288  0.80608485    -0.79600
O429        O  0.62303690  0.01963909  0.69327045    -0.79600
O430        O  0.58899457  0.99564122  0.78865299    -0.79700
O431        O  0.59308441  0.99747126  0.70845241    -0.79600
O432        O  0.61095217  0.05105050  0.72904777    -0.79600
O433        O  0.61898499  0.94579314  0.77017863    -0.79600
C434        C  0.59707670  0.94608700  0.76104933     1.10100
C435        C  0.58871676  0.04835908  0.73696119     1.10000
C436        C  0.59837372  0.98484559  0.80721026     1.10100
C437        C  0.60181850  0.00991948  0.69060414     1.10000
O438        O  0.64485235  0.98087389  0.69849697    -0.79600
O439        O  0.63499982  0.02157532  0.80369074    -0.79700
O440        O  0.66833065  0.96297384  0.75155385    -0.79600
O441        O  0.66015831  0.04334845  0.75236370    -0.79600
O442        O  0.62684990  0.05729978  0.77024527    -0.79700
O443        O  0.63969931  0.94419811  0.73060276    -0.79600
O444        O  0.66953077  0.00682598  0.71818559    -0.79600
O445        O  0.66639181  0.00065426  0.78717534    -0.79600
Co446      Co  0.61710087  0.97379418  0.72319577     1.51500
Co447      Co  0.60932829  0.02374162  0.77605074     1.51700
Co448      Co  0.64328220  0.97447202  0.77609316     1.51600
Co449      Co  0.64064599  0.02774069  0.72569925     1.51500
O450        O  0.62764983  0.99996716  0.75035192    -1.41500
C451        C  0.66595330  0.99130886  0.70108095     1.10000
C452        C  0.65787755  0.01522704  0.80363419     1.10100
C453        C  0.66144002  0.94401434  0.73969489     1.10000
C454        C  0.64893983  0.06113487  0.76263188     1.10000
C455        C  0.52075747  0.99342548  0.97938660     0.02800
C456        C  0.50144047  0.97634991  0.98611186     0.02800
C457        C  0.48408256  0.98261473  0.00524011     0.02800
C458        C  0.48957865  0.00255747  0.02151343     0.02800
C459        C  0.50887746  0.01988804  0.01518321     0.02800
C460        C  0.52606564  0.01395177  0.99555716     0.02800
O461        O  0.46767324  0.25261032  0.08519753    -0.79600
O462        O  0.53706038  0.25055900  0.08681214    -0.79600
O463        O  0.48705825  0.30825711  0.12246740    -0.79600
O464        O  0.51537727  0.19157394  0.11994546    -0.79600
O465        O  0.50529487  0.29109927  0.09086722    -0.79700
O466        O  0.49866059  0.21020875  0.08820594    -0.79600
O467        O  0.55114200  0.22431938  0.11508334    -0.79600
O468        O  0.45094544  0.27630455  0.11403521    -0.79600
C469        C  0.45176052  0.26885152  0.09149471     1.10100
C470        C  0.55246777  0.23406729  0.09349228     1.10000
C471        C  0.49505246  0.30993238  0.10031064     1.10100
C472        C  0.50851554  0.19088818  0.09748804     1.10000
O473        O  0.47440460  0.19891402  0.13618890    -0.79600
O474        O  0.52600547  0.29955333  0.14173351    -0.79700
O475        O  0.46085123  0.25081788  0.16202537    -0.79600
O476        O  0.54002855  0.24495446  0.16424689    -0.79600
O477        O  0.55878957  0.26409654  0.13386805    -0.79700
O478        O  0.44277316  0.23554674  0.12986137    -0.79600
O479        O  0.49837581  0.21407728  0.16570193    -0.79600
O480        O  0.50067835  0.28120967  0.16820432    -0.79600
Co481      Co  0.47368289  0.22648906  0.11021391     1.51500
Co482      Co  0.52896262  0.27421330  0.11346410     1.51700
Co483      Co  0.47695176  0.27654767  0.14130864     1.51600
Co484      Co  0.52402676  0.22151991  0.14089282     1.51500
O485        O  0.50099735  0.24962915  0.12619484    -1.41500
C486        C  0.48214384  0.19867901  0.15862163     1.10000
C487        C  0.51657813  0.29768396  0.16354108     1.10100
C488        C  0.44163715  0.24152798  0.15253954     1.10000
C489        C  0.55939205  0.25514372  0.15562736     1.10000
O490        O  0.19940723  0.13220668  0.47320830    -0.79600
O491        O  0.29657357  0.13535300  0.53162574    -0.79600
O492        O  0.24114054  0.16268586  0.53935732    -0.79600
O493        O  0.25415956  0.15784039  0.46017683    -0.79600
O494        O  0.25699670  0.13236526  0.56101188    -0.79700
O495        O  0.23735951  0.12491572  0.44367114    -0.79600
O496        O  0.28298443  0.16316988  0.50484308    -0.79600
O497        O  0.21506963  0.16232056  0.49584266    -0.79600
C498        C  0.19952379  0.15491359  0.48025915     1.10100
C499        C  0.29692775  0.15752616  0.52314870     1.10000
C500        C  0.24962686  0.15483537  0.55974369     1.10100
C501        C  0.24369783  0.14747248  0.44169873     1.10000
O502        O  0.25286044  0.08085435  0.47071806    -0.79600
O503        O  0.24261361  0.08525242  0.53829030    -0.79700
O504        O  0.19010250  0.11580981  0.51235123    -0.79600
O505        O  0.30643764  0.11595594  0.49290613    -0.79600
O506        O  0.28595861  0.08569970  0.51067329    -0.79700
O507        O  0.21080748  0.08405170  0.49873755    -0.79600
O508        O  0.27769249  0.10884118  0.45410452    -0.79600
O509        O  0.21780601  0.11466794  0.55165419    -0.79600
Co510      Co  0.22698712  0.10607708  0.47439879     1.51500
Co511      Co  0.26882578  0.10978025  0.53269002     1.51700
Co512      Co  0.21874194  0.13862301  0.52286687     1.51600
Co513      Co  0.27749572  0.13643772  0.47998522     1.51500
O514        O  0.24820997  0.12295946  0.50244894    -1.41500
C515        C  0.26963438  0.08645789  0.45531913     1.10000
C516        C  0.22529252  0.09231184  0.55256481     1.10100
C517        C  0.19082978  0.09273809  0.50708409     1.10000
C518        C  0.30571648  0.09368787  0.50082004     1.10000
C519        C  0.76766838  0.76942850  0.26201597     0.02800
C520        C  0.74701690  0.76227919  0.27724665     0.02800
C521        C  0.73215028  0.74118759  0.27063170     0.02800
C522        C  0.73853196  0.72691823  0.24898346     0.02800
C523        C  0.75958359  0.73373544  0.23393482     0.02800
C524        C  0.77457719  0.75452830  0.24104541     0.02800
O525        O  0.61829160  0.55277517  0.26911527    -0.79600
O526        O  0.61615329  0.44870456  0.22115030    -0.79600
O527        O  0.58623953  0.50370979  0.20796028    -0.79600
O528        O  0.58871511  0.49911538  0.28452653    -0.79600
O529        O  0.61641822  0.48449214  0.18856308    -0.79700
O530        O  0.62036462  0.51757164  0.30199527    -0.79600
O531        O  0.58700991  0.46583350  0.24399409    -0.79600
O532        O  0.58721254  0.53731556  0.24794803    -0.79600
C533        C  0.59580879  0.55412894  0.26180161     1.10100
C534        C  0.59395191  0.44867275  0.22953290     1.10000
C535        C  0.59396528  0.49208230  0.18896883     1.10100
C536        C  0.59774837  0.51094112  0.30280881     1.10000
O537        O  0.66646290  0.49793836  0.28227481    -0.79600
O538        O  0.66393001  0.50350508  0.20752804    -0.79700
O539        O  0.63400628  0.55652542  0.22826908    -0.79600
O540        O  0.63453575  0.44528542  0.26083179    -0.79600
O541        O  0.66467766  0.46415851  0.24093344    -0.79700
O542        O  0.66533915  0.53814705  0.24673151    -0.79600
O543        O  0.63578704  0.47608086  0.29804327    -0.79600
O544        O  0.63338156  0.52518538  0.19187801    -0.79600
Co545      Co  0.64233800  0.52430760  0.27223936     1.51500
Co546      Co  0.64018543  0.47738220  0.21715077     1.51700
Co547      Co  0.61048890  0.52802310  0.22137891     1.51600
Co548      Co  0.61162052  0.47408509  0.26957088     1.51500
O549        O  0.62623710  0.50095816  0.24516841    -1.41500
C550        C  0.65844798  0.48258488  0.29856640     1.10000
C551        C  0.65599266  0.51858447  0.19129761     1.10100
C552        C  0.65657436  0.55697145  0.23540684     1.10000
C553        C  0.65691930  0.44548502  0.25289186     1.10000
C554        C  0.76949653  0.24749665  0.26950208     0.02800
C555        C  0.76753138  0.23325780  0.24701225     0.02800
C556        C  0.74838279  0.23945113  0.22947304     0.02800
C557        C  0.73058670  0.25830381  0.23515969     0.02800
C558        C  0.73322372  0.27286160  0.25694347     0.02800
C559        C  0.75144129  0.26635681  0.27486217     0.02800
C560        C  0.76556964  0.73905258  0.72908560     0.02800
C561        C  0.75801708  0.72209961  0.74839003     0.02800
C562        C  0.73619990  0.72755191  0.76283725     0.02800
C563        C  0.72023325  0.74769185  0.75528564     0.02800
C564        C  0.72827411  0.76507429  0.73648216     0.02800
C565        C  0.74974181  0.75925436  0.72179240     0.02800
O566        O  0.16334536  0.99752487  0.78690445    -0.79600
O567        O  0.16416838  0.99903088  0.71709988    -0.79600
O568        O  0.12871572  0.94216639  0.76780122    -0.79600
O569        O  0.13265414  0.05598691  0.73466996    -0.79600
O570        O  0.16082519  0.95880441  0.74955877    -0.79700
O571        O  0.16319680  0.03713846  0.75309147    -0.79600
O572        O  0.13613476  0.02319245  0.69941187    -0.79600
O573        O  0.13288647  0.97534812  0.80270844    -0.79600
C574        C  0.15549432  0.98213979  0.80310119     1.10100
C575        C  0.15829832  0.01492081  0.70087896     1.10000
C576        C  0.15125943  0.94043440  0.76082719     1.10100
C577        C  0.15496952  0.05631234  0.74241657     1.10000
O578        O  0.11380011  0.05222690  0.77429630    -0.79600
O579        O  0.11292412  0.94738774  0.72677789    -0.79700
O580        O  0.08617917  0.99910770  0.78855582    -0.79600
O581        O  0.08668122  0.00248324  0.71254624    -0.79600
O582        O  0.11727738  0.98348435  0.69417346    -0.79700
O583        O  0.11765798  0.01657425  0.80689232    -0.79600
O584        O  0.08484111  0.03516149  0.75115673    -0.79600
O585        O  0.08340866  0.96468561  0.74934413    -0.79600
Co586      Co  0.13927882  0.02368706  0.77758108     1.51500
Co587      Co  0.13861344  0.97441450  0.72437771     1.51700
Co588      Co  0.10808127  0.97293285  0.77492186     1.51600
Co589      Co  0.11025906  0.02662339  0.72655580     1.51500
O590        O  0.12416645  0.99928625  0.75091383    -1.41500
C591        C  0.09135838  0.05161786  0.76637962     1.10000
C592        C  0.09041591  0.94813520  0.73411347     1.10100
C593        C  0.09516168  0.01003634  0.80729907     1.10000
C594        C  0.09494906  0.99142980  0.69369714     1.10000
O595        O  0.75071186  0.41829751  0.53669313    -0.79600
O596        O  0.75230878  0.41799421  0.46717860    -0.79600
O597        O  0.80794881  0.38044755  0.51934864    -0.79600
O598        O  0.69351210  0.38394422  0.48548945    -0.79600
O599        O  0.79200070  0.41265554  0.50064395    -0.79700
O600        O  0.71041725  0.41554436  0.50390400    -0.79600
O601        O  0.72711965  0.39014269  0.45061544    -0.79600
O602        O  0.77395724  0.38919081  0.55342968    -0.79600
C603        C  0.76686211  0.41189287  0.55246417     1.10100
C604        C  0.73594052  0.41228213  0.45127982     1.10000
C605        C  0.81045590  0.40238626  0.51094290     1.10100
C606        C  0.69198513  0.40635800  0.49262315     1.10000
O607        O  0.69851609  0.36696828  0.52640943    -0.79600
O608        O  0.80053163  0.36290357  0.47948817    -0.79700
O609        O  0.75003337  0.34048939  0.54291451    -0.79600
O610        O  0.74883570  0.34052510  0.46287071    -0.79600
O611        O  0.76734289  0.37157674  0.44495609    -0.79700
O612        O  0.73324905  0.37239619  0.56088175    -0.79600
O613        O  0.71494799  0.33793531  0.50253620    -0.79600
O614        O  0.78290101  0.33500007  0.50390508    -0.79600
Co615      Co  0.72556238  0.39290081  0.52928377     1.51500
Co616      Co  0.77567769  0.39108484  0.47582200     1.51700
Co617      Co  0.77599154  0.36178240  0.52761445     1.51600
Co618      Co  0.72377905  0.36334598  0.47757257     1.51500
O619        O  0.75017305  0.37752666  0.50255293    -1.41500
C620        C  0.69869532  0.34462310  0.51829686     1.10000
C621        C  0.79928146  0.34071071  0.48806946     1.10100
C622        C  0.74022329  0.34974823  0.56206452     1.10000
C623        C  0.76017466  0.34922967  0.44416615     1.10000
C624        C  0.02435382  0.51175462  0.49427700     0.02800
C625        C  0.00985511  0.51871315  0.51527549     0.02800
C626        C  0.98894687  0.50385733  0.52213324     0.02800
C627        C  0.98046367  0.48448976  0.50609969     0.02800
C628        C  0.99512330  0.47773005  0.48496692     0.02800
C629        C  0.01574033  0.49285710  0.47801137     0.02800
O630        O  0.80259744  0.64578054  0.02334642    -0.79600
O631        O  0.70144244  0.63698161  0.97604881    -0.79600
O632        O  0.75231488  0.66575581  0.95869852    -0.79600
O633        O  0.74821686  0.66619623  0.04078486    -0.79600
O634        O  0.73603832  0.63288921  0.94196275    -0.79700
O635        O  0.76923655  0.63604393  0.05746694    -0.79600
O636        O  0.71523703  0.66707459  0.00027010    -0.79600
O637        O  0.78335696  0.67239880  0.99875755    -0.79600
C638        C  0.79989366  0.66774013  0.01456846     1.10100
C639        C  0.70010835  0.65928630  0.98406477     1.10000
C640        C  0.74242025  0.65559692  0.94006211     1.10100
C641        C  0.76008082  0.65769933  0.05921937     1.10000
O642        O  0.75630444  0.58916035  0.03456017    -0.79600
O643        O  0.75569975  0.58811730  0.96605953    -0.79700
O644        O  0.81089832  0.62758339  0.98385227    -0.79600
O645        O  0.69586269  0.61956692  0.01669612    -0.79600
O646        O  0.71545766  0.58924890  0.99886175    -0.79700
O647        O  0.79462835  0.59525774  0.00157701    -0.79600
O648        O  0.72986475  0.61547514  0.05195835    -0.79600
O649        O  0.77768448  0.61845124  0.94941051    -0.79600
Co650      Co  0.77850806  0.61672262  0.02657639     1.51500
Co651      Co  0.72945093  0.61233904  0.97349137     1.51700
Co652      Co  0.77845808  0.64552076  0.97507726     1.51600
Co653      Co  0.72504828  0.64196048  0.02514632     1.51500
O654        O  0.75270866  0.62930468  0.00008057    -1.41500
C655        C  0.73983587  0.59390715  0.05061417     1.10000
C656        C  0.77041976  0.59589818  0.94947156     1.10100
C657        C  0.81307967  0.60526066  0.99125226     1.10000
C658        C  0.69577765  0.59723943  0.00896162     1.10000
C659        C  0.48747859  0.50526367  0.97463053     0.02800
C660        C  0.50738245  0.52121652  0.98251690     0.02800
C661        C  0.52324865  0.51404652  0.00275203     0.02800
C662        C  0.51725394  0.49207701  0.01679752     0.02800
C663        C  0.49661285  0.47681246  0.00964451     0.02800
C664        C  0.48046503  0.48442140  0.98995797     0.02800
O665        O  0.79050264  0.16291506  0.00611746    -0.79600
O666        O  0.72197820  0.16479139  0.01142519    -0.79600
O667        O  0.76681978  0.13561888  0.94668758    -0.79600
O668        O  0.74186531  0.12255324  0.06300825    -0.79600
O669        O  0.75166410  0.16591511  0.96862147    -0.79700
O670        O  0.75924324  0.15557725  0.04744538    -0.79600
O671        O  0.70545790  0.13386876  0.03262337    -0.79600
O672        O  0.80378726  0.13677096  0.97759872    -0.79600
C673        C  0.80485088  0.15794852  0.98791512     1.10100
C674        C  0.70615475  0.15702210  0.02702040     1.10000
C675        C  0.76056533  0.15834822  0.94823758     1.10100
C676        C  0.74893865  0.14491851  0.06569618     1.10000
O677        O  0.78109838  0.10425876  0.05210332    -0.79600
O678        O  0.72658189  0.11918272  0.95348432    -0.79700
O679        O  0.79300392  0.08672745  0.99549344    -0.79600
O680        O  0.71334752  0.08794171  0.00369086    -0.79600
O681        O  0.69621658  0.12229669  0.99103345    -0.79700
O682        O  0.81238272  0.11550590  0.01562700    -0.79600
O683        O  0.75501247  0.07895290  0.03336073    -0.79600
O684        O  0.75018808  0.08811904  0.96617628    -0.79600
Co685      Co  0.78299021  0.13457520  0.02847244     1.51500
Co686      Co  0.72694832  0.14246247  0.98319731     1.51700
Co687      Co  0.77642689  0.11172995  0.97426301     1.51600
Co688      Co  0.73103447  0.10637641  0.03043643     1.51500
O689        O  0.75443449  0.12383153  0.00410290    -1.41500
C690        C  0.77166833  0.08246307  0.04948542     1.10000
C691        C  0.73405646  0.09666279  0.95141326     1.10100
C692        C  0.81303605  0.09481604  0.00469564     1.10000
C693        C  0.69464695  0.09902153  0.99468206     1.10000
O694        O  0.37066611  0.51763198  0.69063486    -0.79600
O695        O  0.36464179  0.47665132  0.80103368    -0.79600
O696        O  0.33628204  0.46284845  0.74377065    -0.79600
O697        O  0.33707327  0.53459725  0.74528791    -0.79600
O698        O  0.36320125  0.44266352  0.76638372    -0.79700
O699        O  0.36820870  0.55208848  0.72580237    -0.79600
O700        O  0.33484034  0.49727592  0.78301770    -0.79600
O701        O  0.33970412  0.49790435  0.70794933    -0.79600
C702        C  0.34811746  0.51077524  0.69037679     1.10100
C703        C  0.34198299  0.48272103  0.80030644     1.10000
C704        C  0.34154320  0.44406849  0.75667710     1.10100
C705        C  0.34552593  0.55288103  0.73290545     1.10000
O706        O  0.41511578  0.53312849  0.74748407    -0.79600
O707        O  0.41356912  0.45745029  0.74943152    -0.79700
O708        O  0.38810960  0.47629692  0.69168514    -0.79600
O709        O  0.38204430  0.51716383  0.80141388    -0.79600
O710        O  0.41304430  0.49492877  0.78709857    -0.79700
O711        O  0.41736227  0.49796539  0.70943501    -0.79600
O712        O  0.38411979  0.55120478  0.76707353    -0.79600
O713        O  0.38388829  0.44191333  0.72694425    -0.79600
Co714      Co  0.39236103  0.52275528  0.72092574     1.51500
Co715      Co  0.38864941  0.47050090  0.77323464     1.51700
Co716      Co  0.36239392  0.47204585  0.71990764     1.51600
Co717      Co  0.35991242  0.52251161  0.77157301     1.51500
O718        O  0.37632974  0.49694871  0.74643666    -1.41500
C719        C  0.40697846  0.55057927  0.76085739     1.10000
C720        C  0.40525928  0.43962171  0.73656574     1.10100
C721        C  0.41030226  0.48479596  0.69127692     1.10000
C722        C  0.40414480  0.50914116  0.80388764     1.10000
O723        O  0.77140429  0.89123408  0.44739161    -0.79600
O724        O  0.72442647  0.89392577  0.55192750    -0.79600
O725        O  0.70972472  0.91987028  0.49766346    -0.79600
O726        O  0.78570270  0.91991568  0.50075527    -0.79600
O727        O  0.69179966  0.88930877  0.51746998    -0.79700
O728        O  0.80505988  0.88916066  0.48326128    -0.79600
O729        O  0.74680098  0.92263887  0.53355333    -0.79600
O730        O  0.74914155  0.92040774  0.46502090    -0.79600
C731        C  0.76293687  0.91353715  0.44747847     1.10100
C732        C  0.73232172  0.91620725  0.55076279     1.10000
C733        C  0.69113692  0.91150986  0.50936841     1.10100
C734        C  0.80502656  0.91164429  0.49028403     1.10000
O735        O  0.78524276  0.84284808  0.50281837    -0.79600
O736        O  0.71120475  0.84198171  0.50116746    -0.79700
O737        O  0.73174896  0.87218500  0.44465094    -0.79600
O738        O  0.76483679  0.87700428  0.55771945    -0.79600
O739        O  0.74604016  0.84496929  0.54121597    -0.79700
O740        O  0.75109021  0.84229041  0.46409860    -0.79600
O741        O  0.80069658  0.87330505  0.52473401    -0.79600
O742        O  0.69581292  0.87138919  0.47735771    -0.79600
Co743      Co  0.77560734  0.86667227  0.47651411     1.51500
Co744      Co  0.72116586  0.86756329  0.52561716     1.51700
Co745      Co  0.72390294  0.89574609  0.47362734     1.51600
Co746      Co  0.77228913  0.89776986  0.52669976     1.51500
O747        O  0.74824064  0.88147658  0.50067938    -1.41500
C748        C  0.80141169  0.85070328  0.51797309     1.10000
C749        C  0.69478960  0.84933532  0.48577888     1.10100
C750        C  0.73933836  0.84965889  0.44522718     1.10000
C751        C  0.75740217  0.85460166  0.55943975     1.10000
O752        O  0.09090593  0.53614155  0.25331399    -0.79600
O753        O  0.08697876  0.46701938  0.25032455    -0.79600
O754        O  0.12441906  0.51906873  0.19402362    -0.79600
O755        O  0.12404283  0.48262064  0.30838715    -0.79600
O756        O  0.09140175  0.50194185  0.20987616    -0.79700
O757        O  0.09340715  0.50155456  0.29058757    -0.79600
O758        O  0.11583560  0.44892943  0.27349819    -0.79600
O759        O  0.11998998  0.55202966  0.22893439    -0.79600
C760        C  0.09790538  0.55239248  0.23780948     1.10100
C761        C  0.09345415  0.45042529  0.26588637     1.10000
C762        C  0.10171913  0.51348313  0.19185443     1.10100
C763        C  0.10202647  0.49136527  0.30968258     1.10000
O764        O  0.14492282  0.52075616  0.30202397    -0.79600
O765        O  0.13843116  0.47736069  0.19844475    -0.79700
O766        O  0.16809861  0.53838489  0.24980785    -0.79600
O767        O  0.16396418  0.45999823  0.24941887    -0.79600
O768        O  0.13196431  0.44318596  0.23237857    -0.79700
O769        O  0.13746513  0.55615014  0.26951015    -0.79600
O770        O  0.17105110  0.49632390  0.28243581    -0.79600
O771        O  0.16940057  0.49864416  0.21440308    -0.79600
Co772      Co  0.11675748  0.52607911  0.27669524     1.51500
Co773      Co  0.11254263  0.47504339  0.22525767     1.51700
Co774      Co  0.14518046  0.52464337  0.22447557     1.51600
Co775      Co  0.14339123  0.47409840  0.27606988     1.51500
O776        O  0.12924261  0.50003606  0.25044826    -1.41500
C777        C  0.16673038  0.51135720  0.29960008     1.10000
C778        C  0.16130537  0.48320961  0.19840944     1.10100
C779        C  0.15954180  0.55693964  0.26164234     1.10000
C780        C  0.15471213  0.44171416  0.23845083     1.10000
C781        C  0.47988658  0.48586928  0.51278977     0.02800
C782        C  0.47258391  0.50672354  0.49774296     0.02800
C783        C  0.48871721  0.51541376  0.47811123     0.02800
C784        C  0.50868383  0.49969655  0.46954960     0.02800
C785        C  0.51561219  0.47836866  0.48407142     0.02800
C786        C  0.50022472  0.47073542  0.50452072     0.02800
C787        C  0.98566754  0.49235277  0.98011461     0.02800
C788        C  0.00595757  0.47660943  0.98678258     0.02800
C789        C  0.02115845  0.48280087  0.00768381     0.02800
C790        C  0.01351314  0.50211986  0.02446612     0.02800
C791        C  0.99252083  0.51749087  0.01806446     0.02800
C792        C  0.97756395  0.51132153  0.99690008     0.02800
C793        C  0.04098994  0.49338017  0.09056832    -0.11300
C794        C  0.05227080  0.51644433  0.09488246     0.11200
C795        C  0.05184852  0.53458449  0.07555202    -0.03200
C796        C  0.04025596  0.52866228  0.05265820    -0.05900
C797        C  0.02739633  0.50609361  0.04883925    -0.16700
C798        C  0.02765427  0.48823559  0.06866999     0.02300
C799        C  0.06376228  0.52051596  0.12011031     0.12200
C800        C  0.06269668  0.56042793  0.07920278     0.62800
H801        H  0.04099776  0.54193741  0.03754137     0.12200
C802        C  0.01337965  0.46391670  0.06896042     0.55000
H803        H  0.04149525  0.47948974  0.10527805     0.08000
C804        C  0.04999931  0.51852805  0.14268851    -0.05800
C805        C  0.06286163  0.51558911  0.16546987    -0.06500
C806        C  0.08889869  0.51808770  0.16714006    -0.16100
C807        C  0.10219566  0.52416384  0.14467502    -0.01700
C808        C  0.08960893  0.52312337  0.12166953    -0.09200
C809        C  0.02180977  0.51996549  0.14385991     0.65000
H810        H  0.05221938  0.51196275  0.18221353     0.10500
C811        C  0.12942204  0.53212218  0.14420577     0.63400
H812        H  0.10014401  0.52381285  0.10451177     0.07800
F813        F  0.99946026  0.46225499  0.09062510    -0.19600
F814        F  0.02997090  0.44420060  0.06841963    -0.15800
F815        F  0.99716720  0.46180733  0.04946121    -0.19300
F816        F  0.08835424  0.55920185  0.08011330    -0.22700
F817        F  0.05375742  0.57059736  0.10110081    -0.24200
F818        F  0.05632607  0.57634652  0.05993203    -0.18200
F819        F  0.13701325  0.53963983  0.12069803    -0.20700
F820        F  0.14464275  0.51264896  0.15132793    -0.21800
F821        F  0.13276804  0.55219647  0.15993634    -0.19000
F822        F  0.01489929  0.53756554  0.16135430    -0.19100
F823        F  0.01233075  0.49707042  0.15092710    -0.22900
F824        F  0.01124002  0.52694343  0.12146838    -0.24500
C825        C  0.44055785  0.46315094  0.62936705    -0.11300
C826        C  0.44788173  0.48587535  0.61848602     0.11200
C827        C  0.44431221  0.50805870  0.63264199    -0.03200
C828        C  0.43377016  0.50643814  0.65688144    -0.05900
C829        C  0.42555904  0.48376680  0.66741326    -0.16700
C830        C  0.42928922  0.46169712  0.65325781     0.02300
C831        C  0.45670023  0.48536545  0.59162808     0.12200
C832        C  0.44995777  0.53411411  0.62302660     0.62800
H833        H  0.43056159  0.52349268  0.66718718     0.12200
C834        C  0.42159496  0.43653901  0.66335057     0.55000
H835        H  0.44310186  0.44638263  0.61848325     0.08000
C836        C  0.48209926  0.48711078  0.58444550    -0.05800
C837        C  0.48840578  0.48758590  0.55875504    -0.06500
C838        C  0.47077041  0.48338945  0.53976948    -0.16100
C839        C  0.44584872  0.47810906  0.54754634    -0.01700
C840        C  0.43915969  0.48053419  0.57294798    -0.09200
C841        C  0.50252753  0.48734000  0.60384366     0.65000
H842        H  0.50749238  0.49110277  0.55327787     0.10500
C843        C  0.42577694  0.46830616  0.53065086     0.63400
H844        H  0.41994867  0.47751645  0.57845772     0.07800
F845        F  0.42907305  0.41722711  0.64800942    -0.19600
F846        F  0.39600944  0.43556554  0.66556059    -0.15800
F847        F  0.43242427  0.43292044  0.68630457    -0.19300
F848        F  0.42807643  0.54772325  0.62213129    -0.22700
F849        F  0.46059361  0.53441894  0.59960579    -0.24200
F850        F  0.46615764  0.54578750  0.63917302    -0.18200
F851        F  0.41730768  0.44571878  0.53982400    -0.20700
F852        F  0.43425962  0.46442157  0.50690669    -0.21800
F853        F  0.40605088  0.48487132  0.52997460    -0.19000
F854        F  0.52597591  0.48674075  0.59305796    -0.19100
F855        F  0.50021144  0.46658634  0.61901097    -0.22900
F856        F  0.50080249  0.50852649  0.61824836    -0.24500
C857        C  0.41867535  0.52284600  0.87268047    -0.11300
C858        C  0.44420736  0.51769621  0.87428778     0.11200
C859        C  0.45711171  0.51189681  0.85174706    -0.03200
C860        C  0.44340918  0.50856120  0.82952611    -0.05900
C861        C  0.41784941  0.51415783  0.82793212    -0.16700
C862        C  0.40581347  0.52349775  0.84985382     0.02300
C863        C  0.45589078  0.51627405  0.89992948     0.12200
C864        C  0.48522712  0.50937650  0.84991610     0.62800
H865        H  0.45310561  0.50240500  0.81292312     0.12200
C866        C  0.37965639  0.53452582  0.84988132     0.55000
H867        H  0.40858145  0.52629430  0.88972198     0.08000
C868        C  0.45257323  0.53459062  0.91889630    -0.05800
C869        C  0.46179669  0.52978007  0.94312841    -0.06500
C870        C  0.47636121  0.50864952  0.94880588    -0.16100
C871        C  0.48231389  0.49233324  0.92880281    -0.01700
C872        C  0.47002701  0.49508012  0.90584021    -0.09200
C873        C  0.43982420  0.55952498  0.91440317     0.65000
H874        H  0.45850850  0.54342649  0.95744106     0.10500
C875        C  0.50329831  0.47351037  0.93028091     0.63400
H876        H  0.47233855  0.48085291  0.89180641     0.07800
F877        F  0.37815184  0.55335486  0.83227266    -0.19600
F878        F  0.37352322  0.54502583  0.87260700    -0.15800
F879        F  0.36228027  0.51625222  0.84494032    -0.19300
F880        F  0.49156936  0.48444430  0.84833943    -0.22700
F881        F  0.49734363  0.52000451  0.86988837    -0.24200
F882        F  0.49370797  0.52135454  0.82870346    -0.18200
F883        F  0.49540599  0.45257021  0.94275310    -0.20700
F884        F  0.52359880  0.48378678  0.94216672    -0.21800
F885        F  0.51120089  0.46625307  0.90682839    -0.19000
F886        F  0.45062653  0.57794632  0.92873433    -0.19100
F887        F  0.41499672  0.55788270  0.92102911    -0.22900
F888        F  0.44175742  0.56694068  0.88980942    -0.24500
C889        C  0.87710000  0.57937038  0.00876945    -0.11300
C890        C  0.88319609  0.56530782  0.98769869     0.11200
C891        C  0.86564116  0.56357697  0.96809725    -0.03200
C892        C  0.84347818  0.57778093  0.96936112    -0.05900
C893        C  0.83751434  0.59205826  0.99036596    -0.16700
C894        C  0.85436448  0.59240458  0.01069573     0.02300
C895        C  0.90741358  0.55136107  0.98782825     0.12200
C896        C  0.87008103  0.54639385  0.94625660     0.62800
H897        H  0.83035272  0.57743669  0.95412916     0.12200
C898        C  0.84862719  0.60672520  0.03428409     0.55000
H899        H  0.89039675  0.57990833  0.02386420     0.08000
C900        C  0.93026142  0.56241856  0.98049357    -0.05800
C901        C  0.95250990  0.54846015  0.98267952    -0.06500
C902        C  0.95289248  0.52427326  0.99284206    -0.16100
C903        C  0.92991028  0.51342613  0.00052229    -0.01700
C904        C  0.90765452  0.52719973  0.99778276    -0.09200
C905        C  0.93123931  0.58917295  0.97122903     0.65000
H906        H  0.96994985  0.55669808  0.97708209     0.10500
C907        C  0.92856824  0.48743654  0.01172204     0.63400
H908        H  0.89005551  0.51928806  0.00369305     0.07800
F909        F  0.86630574  0.60264372  0.05254438    -0.19600
F910        F  0.82576814  0.59955940  0.04376822    -0.15800
F911        F  0.84828814  0.63185443  0.02897769    -0.19300
F912        F  0.85056685  0.54696527  0.92949999    -0.22700
F913        F  0.87275475  0.52215052  0.95464816    -0.24200
F914        F  0.89143372  0.55353295  0.93391527    -0.18200
F915        F  0.90505578  0.48205889  0.02091504    -0.20700
F916        F  0.94521790  0.48499994  0.03107633    -0.21800
F917        F  0.93408524  0.47008577  0.99373964    -0.19000
F918        F  0.95517231  0.59620989  0.96465408    -0.19100
F919        F  0.92297914  0.60504899  0.98970796    -0.22900
F920        F  0.91625702  0.59202938  0.95058721    -0.24500
C921        C  0.58197538  0.54731804  0.02877603    -0.11300
C922        C  0.59830713  0.54633769  0.00828003     0.11200
C923        C  0.58959027  0.53473256  0.98618036    -0.03200
C924        C  0.56536923  0.52439786  0.98589510    -0.05900
C925        C  0.54836326  0.52690522  0.00577775    -0.16700
C926        C  0.55680458  0.53970369  0.02738935     0.02300
C927        C  0.62344605  0.55913073  0.01001678     0.12200
C928        C  0.60542741  0.53308105  0.96271804     0.62800
H929        H  0.55960990  0.51359399  0.96997798     0.12200
C930        C  0.54043207  0.54724674  0.04908236     0.55000
H931        H  0.58871784  0.55500708  0.04606005     0.08000
C932        C  0.62576707  0.58509747  0.01479060    -0.05800
C933        C  0.64972271  0.59588924  0.01548998    -0.06500
C934        C  0.67163544  0.58260379  0.00949194    -0.16100
C935        C  0.66913298  0.55692430  0.00318307    -0.01700
C936        C  0.64542698  0.54542328  0.00557795    -0.09200
C937        C  0.60321470  0.60190911  0.01875070     0.65000
H938        H  0.65125892  0.61544856  0.02004673     0.10500
C939        C  0.69059248  0.54188321  0.99231287     0.63400
H940        H  0.64379606  0.52551928  0.00323770     0.07800
F941        F  0.54152718  0.57283989  0.05187948    -0.19600
F942        F  0.54911425  0.53629422  0.07067350    -0.15800
F943        F  0.51587862  0.54084150  0.04592029    -0.19300
F944        F  0.62401446  0.51554882  0.96575365    -0.22700
F945        F  0.61593592  0.55600643  0.95733871    -0.24200
F946        F  0.59144801  0.52597330  0.94235183    -0.18200
F947        F  0.68360072  0.51768141  0.98688793    -0.20700
F948        F  0.71027713  0.54070540  0.00871757    -0.21800
F949        F  0.69845848  0.55288010  0.97033700    -0.19000
F950        F  0.60938309  0.62686969  0.01661362    -0.19100
F951        F  0.59353887  0.59831776  0.04232152    -0.22900
F952        F  0.58511198  0.59696505  0.00120465    -0.24500
C953        C  0.02999617  0.50573325  0.40930682    -0.11300
C954        C  0.04946298  0.48904065  0.40466499     0.11200
C955        C  0.05792240  0.47333183  0.42413606    -0.03200
C956        C  0.04583481  0.47432173  0.44751604    -0.05900
C957        C  0.02641179  0.49125645  0.45226845    -0.16700
C958        C  0.01843990  0.50740185  0.43274756     0.02300
C959        C  0.06175812  0.48990138  0.37971766     0.12200
C960        C  0.08000791  0.45608915  0.42028324     0.62800
H961        H  0.05182814  0.46221264  0.46244455     0.12200
C962        C  0.99818393  0.52704960  0.43516112     0.55000
H963        H  0.02406829  0.51809431  0.39444671     0.08000
C964        C  0.05255328  0.47678433  0.35887399    -0.05800
C965        C  0.06602808  0.47782511  0.33622994    -0.06500
C966        C  0.08766680  0.49231758  0.33362255    -0.16100
C967        C  0.09347210  0.50924099  0.35308930    -0.01700
C968        C  0.08158422  0.50645921  0.37632286    -0.09200
C969        C  0.02800471  0.46287756  0.36026272     0.65000
H970        H  0.05913595  0.46810276  0.32012170     0.10500
C971        C  0.10901220  0.53245724  0.34890790     0.63400
H972        H  0.08700934  0.51814056  0.39179890     0.07800
F973        F  0.97939685  0.52189187  0.41842364    -0.19600
F974        F  0.00808108  0.55017513  0.42947762    -0.15800
F975        F  0.98775907  0.52841822  0.45856140    -0.19300
F976        F  0.10085793  0.46993501  0.41414573    -0.22700
F977        F  0.07505759  0.43960192  0.40124738    -0.24200
F978        F  0.08535009  0.44240734  0.44148810    -0.18200
F979        F  0.10213415  0.55122470  0.36519696    -0.20700
F980        F  0.10581130  0.54166862  0.32509117    -0.21800
F981        F  0.13365296  0.52717805  0.35285879    -0.19000
F982        F  0.02321922  0.44991903  0.33857523    -0.19100
F983        F  0.00887327  0.47975641  0.36392916    -0.22900
F984        F  0.02821205  0.44603082  0.37977784    -0.24500
C985        C  0.63955957  0.45516685  0.48405980    -0.11300
C986        C  0.61830810  0.43977835  0.48360439     0.11200
C987        C  0.62175151  0.41356830  0.48592655    -0.03200
C988        C  0.64609130  0.40408970  0.48842781    -0.05900
C989        C  0.66728852  0.41945744  0.48997156    -0.16700
C990        C  0.66381388  0.44568171  0.48858144     0.02300
C991        C  0.59275450  0.45159885  0.48261377     0.12200
C992        C  0.60017098  0.39514577  0.48586548     0.62800
H993        H  0.64863871  0.38410770  0.48965231     0.12200
C994        C  0.68510669  0.46374891  0.49275809     0.55000
H995        H  0.63690159  0.47495530  0.48139239     0.08000
C996        C  0.58381428  0.46803121  0.50136444    -0.05800
C997        C  0.55917158  0.47713984  0.49979383    -0.06500
C998        C  0.54194591  0.46812739  0.48234171    -0.16100
C999        C  0.55069884  0.45085695  0.46429853    -0.01700
C1000       C  0.57631491  0.44481444  0.46350430    -0.09200
C1001       C  0.59968004  0.47579972  0.52341242     0.65000
H1002       H  0.55275055  0.49083129  0.51311429     0.10500
C1003       C  0.53386286  0.43750337  0.44633115     0.63400
H1004       H  0.58328871  0.43347568  0.44840395     0.07800
F1005       F  0.69354342  0.46131655  0.51690745    -0.19600
F1006       F  0.67776911  0.48825882  0.48927019    -0.15800
F1007       F  0.70448146  0.45898449  0.47653920    -0.19300
F1008       F  0.59125125  0.39228384  0.46199892    -0.22700
F1009       F  0.58114442  0.40321069  0.50119555    -0.24200
F1010       F  0.60746441  0.37185156  0.49423369    -0.18200
F1011       F  0.53429662  0.44950653  0.42369775    -0.20700
F1012       F  0.50983060  0.43650295  0.45498937    -0.21800
F1013       F  0.54179099  0.41316731  0.44299790    -0.19000
F1014       F  0.58520038  0.48554953  0.54241041    -0.19100
F1015       F  0.61647932  0.49387897  0.51611355    -0.22900
F1016       F  0.61247539  0.45558271  0.53304986    -0.24500
C1017       C  0.87562181  0.42584070  0.49311710    -0.11300
C1018       C  0.88437215  0.43438604  0.51607011     0.11200
C1019       C  0.86814412  0.43378641  0.53689094    -0.03200
C1020       C  0.84429973  0.42304140  0.53443329    -0.05900
C1021       C  0.83547859  0.41446711  0.51152152    -0.16700
C1022       C  0.85130517  0.41630855  0.49025835     0.02300
C1023       C  0.90928419  0.44690545  0.51653887     0.12200
C1024       C  0.87545834  0.44566256  0.56121031     0.62800
H1025       H  0.83203506  0.42182708  0.55033021     0.12200
C1026       C  0.84325330  0.40772022  0.46465937     0.55000
H1027       H  0.88807836  0.42699080  0.47725882     0.08000
C1028       C  0.93202714  0.43396873  0.52021064    -0.05800
C1029       C  0.95473878  0.44714196  0.51783939    -0.06500
C1030       C  0.95552567  0.47239363  0.51064922    -0.16100
C1031       C  0.93248953  0.48517208  0.50690057    -0.01700
C1032       C  0.90999251  0.47224766  0.51048087    -0.09200
C1033       C  0.93240711  0.40612335  0.52513142     0.65000
H1034       H  0.97220697  0.43750338  0.52064842     0.10500
C1035       C  0.92976357  0.51195354  0.49804712     0.63400
H1036       H  0.89250425  0.48189110  0.50734016     0.07800
F1037       F  0.84278098  0.38207975  0.46402183    -0.19600
F1038       F  0.85952404  0.41575981  0.44627567    -0.15800
F1039       F  0.81995465  0.41699786  0.45900065    -0.19300
F1040       F  0.87936578  0.47080443  0.55734593    -0.22700
F1041       F  0.89691033  0.43486975  0.57028731    -0.24200
F1042       F  0.85710117  0.44295258  0.57903552    -0.18200
F1043       F  0.91549639  0.51242644  0.47666193    -0.20700
F1044       F  0.95200800  0.52345713  0.49262879    -0.21800
F1045       F  0.91762946  0.52562766  0.51619782    -0.19000
F1046       F  0.95626507  0.39751122  0.52972863    -0.19100
F1047       F  0.92322347  0.39385086  0.50460770    -0.22900
F1048       F  0.91784821  0.40022005  0.54551042    -0.24500
C1049       C  0.75189206  0.77921511  0.65261015    -0.11300
C1050       C  0.76665977  0.80052866  0.65318229     0.11200
C1051       C  0.77609428  0.80860914  0.67647762    -0.03200
C1052       C  0.77049898  0.79462759  0.69825990    -0.05900
C1053       C  0.75490925  0.77350549  0.69780804    -0.16700
C1054       C  0.74541971  0.76589313  0.67418278     0.02300
C1055       C  0.76696781  0.81577997  0.62978771     0.12200
C1056       C  0.79149711  0.83204585  0.67951128     0.62800
H1057       H  0.77826051  0.80045474  0.71586788     0.12200
C1058       C  0.72820242  0.74413707  0.66980108     0.55000
H1059       H  0.74420583  0.77347100  0.63487911     0.08000
C1060       C  0.78318937  0.81109691  0.60940639    -0.05800
C1061       C  0.77933743  0.82380093  0.58661242    -0.06500
C1062       C  0.75996296  0.84111729  0.58370476    -0.16100
C1063       C  0.74417012  0.84616366  0.60445062    -0.01700
C1064       C  0.74790510  0.83327313  0.62696792    -0.09200
C1065       C  0.80426645  0.79258873  0.61174003     0.65000
H1066       H  0.79143730  0.82028522  0.57084820     0.10500
C1067       C  0.72360737  0.86536860  0.60322162     0.63400
H1068       H  0.73565710  0.83648236  0.64269900     0.07800
F1069       F  0.73961806  0.72713121  0.65417442    -0.10000
F1070       F  0.70655728  0.75253315  0.65865562    -0.15800
F1071       F  0.72180204  0.73215562  0.69124576    -0.19300
F1072       F  0.77789831  0.84932124  0.69290511    -0.22700
F1073       F  0.79833972  0.84272485  0.65707680    -0.24200
F1074       F  0.81300772  0.82646923  0.69246283    -0.18200
F1075       F  0.70925142  0.86581465  0.62466521    -0.20700
F1076       F  0.70797631  0.86021911  0.58353404    -0.21800
F1077       F  0.73424443  0.88855887  0.60041662    -0.19000
F1078       F  0.81916133  0.79215909  0.59065475    -0.19100
F1079       F  0.79449808  0.76908660  0.61524300    -0.22900
F1080       F  0.81901815  0.79878023  0.63181555    -0.24500
C1081       C  0.72879205  0.68293287  0.81972220    -0.11300
C1082       C  0.73453314  0.69890579  0.83957302     0.11200
C1083       C  0.73988056  0.72423763  0.83395441    -0.03200
C1084       C  0.73951554  0.73240120  0.80885518    -0.05900
C1085       C  0.73336925  0.71659252  0.78890001    -0.16700
C1086       C  0.72749552  0.69129526  0.79470461     0.02300
C1087       C  0.73574686  0.68841017  0.86578642     0.12200
C1088       C  0.74599194  0.74275324  0.85435831     0.62800
H1089       H  0.74479423  0.75138174  0.80446107     0.12200
C1090       C  0.71972171  0.67208771  0.77575679     0.55000
H1091       H  0.72526428  0.66345267  0.82381522     0.08000
C1092       C  0.71429647  0.68104268  0.87957246    -0.05800
C1093       C  0.71719484  0.67061761  0.90373056    -0.06500
C1094       C  0.74056084  0.66876851  0.91531596    -0.16100
C1095       C  0.76184576  0.67741891  0.90199112    -0.01700
C1096       C  0.75912403  0.68588528  0.87716003    -0.09200
C1097       C  0.68835881  0.68470634  0.86909893     0.65000
H1098       H  0.70107072  0.66408076  0.91399200     0.10500
C1099       C  0.78739075  0.67819765  0.91390891     0.63400
H1100       H  0.77539733  0.69105739  0.86641472     0.07800
F1101       F  0.69650942  0.66285728  0.78210332    -0.19600
F1102       F  0.73659955  0.65269528  0.77581079    -0.15800
F1103       F  0.71846647  0.68144017  0.75200679    -0.19300
F1104       F  0.76852669  0.73677773  0.86516060    -0.22700
F1105       F  0.72754524  0.74235979  0.87236540    -0.24200
F1106       F  0.74773735  0.76685623  0.84524778    -0.18200
F1107       F  0.79434796  0.65472793  0.92176147    -0.20700
F1108       F  0.78673709  0.69418091  0.93401266    -0.21800
F1109       F  0.80550387  0.68669260  0.89757321    -0.19000
F1110       F  0.67015487  0.67812715  0.88616089    -0.19100
F1111       F  0.68519851  0.67019182  0.84818777    -0.22900
F1112       F  0.68489758  0.70948501  0.86284453    -0.24500
C1113       C  0.76216013  0.21801194  0.16254087    -0.11300
C1114       C  0.74312637  0.20067144  0.15865050     0.11200
C1115       C  0.72578826  0.19599805  0.17804372    -0.03200
C1116       C  0.72806816  0.20911744  0.20065082    -0.05900
C1117       C  0.74716073  0.22658900  0.20462339    -0.16700
C1118       C  0.76422060  0.23152842  0.18484333     0.02300
C1119       C  0.74305110  0.18649634  0.13471026     0.12200
C1120       C  0.70530925  0.17680291  0.17506388     0.62800
H1121       H  0.71511634  0.20549443  0.21570124     0.12200
C1122       C  0.78460302  0.25107330  0.18548946     0.55000
H1123       H  0.77557874  0.22121414  0.14774641     0.08000
C1124       C  0.73433226  0.19674691  0.11198246    -0.05800
C1125       C  0.73605877  0.18230697  0.09007678    -0.06500
C1126       C  0.74625531  0.15815174  0.09008737    -0.16100
C1127       C  0.75498560  0.14802306  0.11298065    -0.01700
C1128       C  0.75330598  0.16249636  0.13477511    -0.09200
C1129       C  0.72355948  0.22290770  0.11079747     0.65000
H1130       H  0.72953752  0.18985994  0.07262207     0.10500
C1131       C  0.76689258  0.12243857  0.11451570     0.63400
H1132       H  0.76035209  0.15529566  0.15223779     0.07800
F1133       F  0.78205797  0.26688426  0.16526270    -0.19600
F1134       F  0.80749133  0.23941386  0.18379422    -0.15800
F1135       F  0.78412860  0.26554938  0.20662778    -0.19300
F1136       F  0.71567356  0.15326559  0.17347950    -0.22700
F1137       F  0.69187045  0.18163638  0.15369243    -0.24200
F1138       F  0.68890791  0.17698624  0.19499396    -0.18200
F1139       F  0.77528322  0.11696154  0.13825092    -0.20700
F1140       F  0.78709528  0.12132204  0.09858950    -0.21800
F1141       F  0.74965170  0.10455082  0.10815158    -0.19000
F1142       F  0.71478890  0.22865831  0.08726981    -0.19100
F1143       F  0.74170985  0.24008213  0.11676283    -0.22900
F1144       F  0.70397785  0.22512816  0.12741154    -0.24500
C1145       C  0.74758524  0.27835811  0.34502720    -0.11300
C1146       C  0.75368465  0.30362402  0.34648784     0.11200
C1147       C  0.75824145  0.31715418  0.32422626    -0.03200
C1148       C  0.75817523  0.30424513  0.30137422    -0.05900
C1149       C  0.75136163  0.27894756  0.29985082    -0.16700
C1150       C  0.74453295  0.26625612  0.32214693     0.02300
C1151       C  0.75510550  0.31510192  0.37170312     0.12200
C1152       C  0.76246342  0.34513971  0.32450760     0.62800
H1153       H  0.76328148  0.31394179  0.28444097     0.12200
C1154       C  0.73220802  0.24084741  0.32337431     0.55000
H1155       H  0.74406616  0.26812070  0.36210719     0.08000
C1156       C  0.73380631  0.31866405  0.38695898    -0.05800
C1157       C  0.73696964  0.32821894  0.41111930    -0.06500
C1158       C  0.76034372  0.33566989  0.42006059    -0.16100
C1159       C  0.78161632  0.33273685  0.40434153    -0.01700
C1160       C  0.77855863  0.32169128  0.38084429    -0.09200
C1161       C  0.70769861  0.31352938  0.37746330     0.65000
H1162       H  0.72082926  0.33106519  0.42293043     0.10500
C1163       C  0.80798021  0.34049654  0.41070152     0.63400
H1164       H  0.79479675  0.31845066  0.36923165     0.07800
F1165       F  0.70908190  0.24333736  0.33451818    -0.19600
F1166       F  0.74631236  0.22503467  0.33791951    -0.15800
F1167       F  0.72871649  0.23004432  0.30039949    -0.19300
F1168       F  0.78511599  0.35049185  0.33531507    -0.22700
F1169       F  0.74369569  0.35668467  0.33790344    -0.24200
F1170       F  0.76242266  0.35512989  0.30071816    -0.18200
F1171       F  0.82356692  0.31997644  0.40940116    -0.20700
F1172       F  0.81016059  0.35054907  0.43400013    -0.21800
F1173       F  0.81604577  0.35807033  0.39360387    -0.19000
F1174       F  0.68962487  0.32178356  0.39393149    -0.19100
F1175       F  0.70428477  0.28826246  0.37413443    -0.22900
F1176       F  0.70410087  0.32574198  0.35507194    -0.24500
C1177       C  0.73616308  0.45289909  0.39297927    -0.11300
C1178       C  0.71060662  0.45754838  0.38996188     0.11200
C1179       C  0.69402263  0.45050865  0.40940531    -0.03200
C1180       C  0.70289991  0.43539574  0.42882021    -0.05900
C1181       C  0.72833190  0.43039147  0.43171137    -0.16700
C1182       C  0.74548590  0.44073908  0.41436815     0.02300
C1183       C  0.70081277  0.46381458  0.36466971     0.12200
C1184       C  0.66670007  0.45786062  0.41013030     0.62800
H1185       H  0.68977422  0.42775323  0.44212653     0.12200
C1186       C  0.77338698  0.43797976  0.41774406     0.55000
H1187       H  0.74869213  0.45747182  0.37787628     0.08000
C1188       C  0.70452655  0.48687941  0.35224621    -0.05800
C1189       C  0.69181334  0.49132527  0.32961181    -0.06500
C1190       C  0.67408653  0.47445595  0.32021902    -0.16100
C1191       C  0.67011728  0.45155700  0.33336688    -0.01700
C1192       C  0.68490645  0.44618716  0.35415859    -0.09200
C1193       C  0.72053662  0.50722128  0.36345091     0.65000
H1194       H  0.69445458  0.50884787  0.31991813     0.10500
C1195       C  0.64987876  0.43287834  0.32684294     0.63400
H1196       H  0.68265391  0.42864276  0.36392595     0.07800
F1197       F  0.78660179  0.44965147  0.39887360    -0.19600
F1198       F  0.77988637  0.41306603  0.41787702    -0.15800
F1199       F  0.78036438  0.44875587  0.43998373    -0.19300
F1200       F  0.65209181  0.43691070  0.40701106    -0.22700
F1201       F  0.66051044  0.47527380  0.39215193    -0.24200
F1202       F  0.66129820  0.46831463  0.43298874    -0.18200
F1203       F  0.65142156  0.41126478  0.34092639    -0.20700
F1204       F  0.65196096  0.42595362  0.30239667    -0.21800
F1205       F  0.62667242  0.44318213  0.33115668    -0.19000
F1206       F  0.71918457  0.52915422  0.34987146    -0.19100
F1207       F  0.74515559  0.49980639  0.36393805    -0.22900
F1208       F  0.71260179  0.51220843  0.38743707    -0.24500
C1209       C  0.68273749  0.55162209  0.13444653    -0.11300
C1210       C  0.70158397  0.53501094  0.12775983     0.11200
C1211       C  0.70629192  0.51362106  0.14221110    -0.03200
C1212       C  0.69171047  0.50969528  0.16360070    -0.05900
C1213       C  0.67198505  0.52588241  0.16999210    -0.16700
C1214       C  0.66719055  0.54721696  0.15483203     0.02300
C1215       C  0.71587235  0.54172273  0.10541877     0.12200
C1216       C  0.72564978  0.49461500  0.13427222     0.62800
H1217       H  0.69495693  0.49324700  0.17485602     0.12200
C1218       C  0.64561088  0.56512736  0.15902788     0.55000
H1219       H  0.67985819  0.56787260  0.12277033     0.08000
C1220       C  0.70395555  0.54287477  0.08200503    -0.05800
C1221       C  0.71281949  0.55981251  0.06431276    -0.06500
C1222       C  0.73340016  0.57486232  0.06907123    -0.16100
C1223       C  0.74668924  0.57216941  0.09162877    -0.01700
C1224       C  0.73771203  0.55529945  0.10947933    -0.09200
C1225       C  0.68085342  0.52806281  0.07547100     0.65000
H1226       H  0.70271013  0.56224776  0.04720361     0.10500
C1227       C  0.76859103  0.58874273  0.09796189     0.63400
H1228       H  0.74598737  0.55474393  0.12782483     0.07800
F1229       F  0.64658425  0.58556943  0.14324241    -0.19600
F1230       F  0.64599966  0.57406272  0.18300512    -0.15800
F1231       F  0.62340811  0.55305452  0.15454703    -0.19300
F1232       F  0.74891118  0.50554861  0.13329912    -0.22700
F1233       F  0.71972200  0.48560484  0.11095579    -0.24200
F1234       F  0.72676553  0.47462041  0.15058289    -0.18200
F1235       F  0.76029105  0.61293552  0.10087894    -0.20700
F1236       F  0.78621733  0.58783376  0.07918804    -0.21800
F1237       F  0.78000544  0.58147860  0.11988856    -0.19000
F1238       F  0.68522628  0.51489819  0.05380679    -0.19100
F1239       F  0.66117539  0.54426666  0.07159824    -0.22900
F1240       F  0.67415098  0.51115800  0.09376313    -0.24500
C1241       C  0.56263187  0.48141503  0.07149861    -0.11300
C1242       C  0.54634324  0.48427633  0.09186939     0.11200
C1243       C  0.52055497  0.48705481  0.08726834    -0.03200
C1244       C  0.51254360  0.49019921  0.06258509    -0.05900
C1245       C  0.52867789  0.48758640  0.04203137    -0.16700
C1246       C  0.55405118  0.48148932  0.04668984     0.02300
C1247       C  0.55686770  0.48480456  0.11764133     0.12200
C1248       C  0.50135490  0.48512710  0.10803955     0.62800
H1249       H  0.49328900  0.49494297  0.05909844     0.12200
C1250       C  0.57273948  0.47405821  0.02688432     0.55000
H1251       H  0.58224273  0.47827511  0.07510040     0.08000
C1252       C  0.56918150  0.46422361  0.12871404    -0.05800
C1253       C  0.58076425  0.46736168  0.15203510    -0.06500
C1254       C  0.57858410  0.48949963  0.16585241    -0.16100
C1255       C  0.56460724  0.50949676  0.15548831    -0.01700
C1256       C  0.55528880  0.50719589  0.13105150    -0.09200
C1257       C  0.56996687  0.43832464  0.11751460     0.65000
H1258       H  0.59143783  0.45207667  0.15969473     0.10500
C1259       C  0.55911596  0.53306169  0.17004848     0.63400
H1260       H  0.54625107  0.52293976  0.12222842     0.07800
F1261       F  0.58155975  0.45039546  0.03215054    -0.19600
F1262       F  0.59259842  0.49040290  0.02705092    -0.15800
F1263       F  0.56278139  0.47370186  0.00333144    -0.19300
F1264       F  0.50395313  0.50436007  0.12479697    -0.22700
F1265       F  0.50436382  0.46263439  0.12032912    -0.24200
F1266       F  0.47728033  0.48604225  0.09896727    -0.18200
F1267       F  0.58092227  0.54403045  0.17794525    -0.20700
F1268       F  0.54459100  0.52704005  0.19046074    -0.21800
F1269       F  0.54622795  0.55045464  0.15599121    -0.19000
F1270       F  0.55921381  0.42205803  0.13421933    -0.19100
F1271       F  0.59444767  0.43135791  0.11345062    -0.22900
F1272       F  0.55709715  0.43605620  0.09545806    -0.24500
C1273       C  0.57083383  0.53098984  0.36594862    -0.11300
C1274       C  0.56517732  0.50775289  0.37642510     0.11200
C1275       C  0.56974835  0.48592277  0.36224184    -0.03200
C1276       C  0.57869897  0.48833935  0.33769604    -0.05900
C1277       C  0.58461946  0.51158000  0.32724757    -0.16700
C1278       C  0.58170158  0.53334202  0.34213589     0.02300
C1279       C  0.55149665  0.50720140  0.40075122     0.12200
C1280       C  0.56559443  0.46007978  0.37295247     0.62800
H1281       H  0.58194798  0.47181075  0.32661258     0.12200
C1282       C  0.58723024  0.55942202  0.33273152     0.55000
H1283       H  0.56610563  0.54752285  0.37647994     0.08000
C1284       C  0.56246233  0.51295605  0.42400330    -0.05800
C1285       C  0.54746364  0.51225531  0.44578466    -0.06500
C1286       C  0.52225939  0.50488218  0.44523861    -0.16100
C1287       C  0.51165503  0.49915926  0.42160184    -0.01700
C1288       C  0.52620793  0.50155443  0.39994173    -0.09200
C1289       C  0.59004373  0.51876432  0.42589540     0.65000
H1290       H  0.55566416  0.51634227  0.46364482     0.10500
C1291       C  0.48551817  0.48921243  0.41871139     0.63400
H1292       H  0.51806860  0.49821085  0.38185378     0.07800
F1293       F  0.58899868  0.57623998  0.35214000    -0.19600
F1294       F  0.56799873  0.56691402  0.31757794    -0.15800
F1295       F  0.60946227  0.56043586  0.31987451    -0.19300
F1296       F  0.54040929  0.45570885  0.37562097    -0.22700
F1297       F  0.57716768  0.45810300  0.39581220    -0.24200
F1298       F  0.57530209  0.44169113  0.35769929    -0.18200
F1299       F  0.46875035  0.50758488  0.42466733    -0.20700
F1300       F  0.48220167  0.46877431  0.43386628    -0.21800
F1301       F  0.48053404  0.48167196  0.39461899    -0.19000
F1302       F  0.59721080  0.52286981  0.45024572    -0.19100
F1303       F  0.59568298  0.53991304  0.41228221    -0.22900
F1304       F  0.60376716  0.49895647  0.41675896    -0.24500
C1305       C  0.70342025  0.39336988  0.26785849    -0.11300
C1306       C  0.69135824  0.37306234  0.25682288     0.11200
C1307       C  0.66926699  0.37721933  0.24320243    -0.03200
C1308       C  0.65924206  0.40136414  0.24224791    -0.05900
C1309       C  0.67123257  0.42179775  0.25314860    -0.16700
C1310       C  0.69448698  0.41796141  0.26519207     0.02300
C1311       C  0.70306950  0.34788852  0.25808851     0.12200
C1312       C  0.65618471  0.35623005  0.22979295     0.62800
H1313       H  0.64164759  0.40447832  0.23292386     0.12200
C1314       C  0.71087435  0.43842418  0.27548035     0.55000
H1315       H  0.72052463  0.39005625  0.27801276     0.08000
C1316       C  0.72346788  0.34142015  0.24270623    -0.05800
C1317       C  0.73226845  0.31672163  0.24315987    -0.06500
C1318       C  0.72105518  0.29808090  0.25784697    -0.16100
C1319       C  0.70069916  0.30476060  0.27349549    -0.01700
C1320       C  0.69238271  0.32968880  0.27355468    -0.09200
C1321       C  0.73575268  0.36051142  0.22570993     0.65000
H1322       H  0.74861407  0.31185800  0.23241657     0.10500
C1323       C  0.68680644  0.28685962  0.29030281     0.63400
H1324       H  0.67685206  0.33491544  0.28539838     0.07800
F1325       F  0.73442457  0.43632071  0.26517315    -0.19600
F1326       F  0.71280427  0.43567358  0.30096760    -0.15800
F1327       F  0.70225895  0.46204197  0.27029902    -0.19300
F1328       F  0.64559374  0.34028032  0.24707034    -0.22700
F1329       F  0.67296759  0.34321978  0.21518882    -0.24200
F1330       F  0.63761433  0.36510289  0.21433220    -0.18200
F1331       F  0.68949730  0.29425210  0.31475499    -0.20700
F1332       F  0.69509608  0.26274430  0.28826325    -0.21800
F1333       F  0.66178162  0.28722579  0.28431241    -0.19000
F1334       F  0.75392093  0.34986183  0.21081933    -0.19100
F1335       F  0.74686152  0.37887066  0.23979153    -0.22900
F1336       F  0.71816810  0.37128864  0.21030041    -0.24500
C1337       C  0.72318377  0.80253937  0.33204641    -0.11300
C1338       C  0.74112585  0.79699609  0.35022642     0.11200
C1339       C  0.76017784  0.77967087  0.34455216    -0.03200
C1340       C  0.76157380  0.76982428  0.32031666    -0.05900
C1341       C  0.74363870  0.77509646  0.30199641    -0.16700
C1342       C  0.72396104  0.79186434  0.30801404     0.02300
C1343       C  0.74033806  0.81041893  0.37463732     0.12200
C1344       C  0.77821737  0.77063167  0.36438209     0.62800
H1345       H  0.77626388  0.75683239  0.31578237     0.12200
C1346       C  0.70359825  0.79965557  0.29011155     0.55000
H1347       H  0.70852541  0.81569049  0.33659862     0.08000
C1348       C  0.75312652  0.83313846  0.37813473    -0.05800
C1349       C  0.75254419  0.84459565  0.40166122    -0.06500
C1350       C  0.73938876  0.83445352  0.42190624    -0.16100
C1351       C  0.72719199  0.81110292  0.41862833    -0.01700
C1352       C  0.72739404  0.79990418  0.39481683    -0.09200
C1353       C  0.76654039  0.84575904  0.35674368     0.65000
H1354       H  0.76267363  0.86171353  0.40450562     0.10500
C1355       C  0.71360731  0.79703588  0.43900746     0.63400
H1356       H  0.71775918  0.78238999  0.39205360     0.07800
F1357       F  0.70331389  0.82536205  0.28807482    -0.19600
F1358       F  0.68084312  0.79187242  0.29940281    -0.15800
F1359       F  0.70657698  0.78997235  0.26652960    -0.19300
F1360       F  0.76504286  0.75938738  0.38349347    -0.22700
F1361       F  0.79163514  0.79032292  0.37392009    -0.24200
F1362       F  0.79497674  0.75335651  0.35506689    -0.18200
F1363       F  0.68834838  0.79724379  0.43409702    -0.20700
F1364       F  0.71753615  0.80682498  0.46226426    -0.21800
F1365       F  0.72179058  0.77257156  0.43949900    -0.19000
F1366       F  0.77907464  0.86690756  0.36437567    -0.19100
F1367       F  0.74926627  0.85250914  0.33893936    -0.22900
F1368       F  0.78379524  0.82983136  0.34619333    -0.24500
C1369       C  0.74366722  0.69205260  0.11992182    -0.11300
C1370       C  0.76603315  0.69031275  0.13336696     0.11200
C1371       C  0.78662540  0.67808386  0.12188187    -0.03200
C1372       C  0.78399514  0.66855872  0.09747337    -0.05900
C1373       C  0.76186586  0.67114269  0.08372485    -0.16700
C1374       C  0.74134942  0.68338629  0.09517414     0.02300
C1375       C  0.76694527  0.70181291  0.15910237     0.12200
C1376       C  0.81152179  0.67536056  0.13490676     0.62800
H1377       H  0.79940077  0.65880491  0.08880652     0.12200
C1378       C  0.71675345  0.68666806  0.08174773     0.55000
H1379       H  0.72773904  0.70024285  0.12918358     0.08000
C1380       C  0.76382120  0.72783562  0.16300888    -0.05800
C1381       C  0.76185061  0.73697275  0.18755996    -0.06500
C1382       C  0.76429700  0.72163198  0.20872432    -0.16100
C1383       C  0.77026408  0.69606426  0.20474240    -0.01700
C1384       C  0.76980300  0.68644992  0.18021373    -0.09200
C1385       C  0.76218353  0.74615739  0.14146260     0.65000
H1386       H  0.75737997  0.75636150  0.19036805     0.10500
C1387       C  0.77856512  0.67827217  0.22504988     0.63400
H1388       H  0.77175927  0.66655312  0.17763267     0.07800
F1389       F  0.72023877  0.70118068  0.06071774    -0.19600
F1390       F  0.69909757  0.69836507  0.09649349    -0.15800
F1391       F  0.70746075  0.66364639  0.07500704    -0.19300
F1392       F  0.80937918  0.65990469  0.15536683    -0.22700
F1393       F  0.81969959  0.69843451  0.14240837    -0.24200
F1394       F  0.82953220  0.66525096  0.11947479    -0.18200
F1395       F  0.76255071  0.65816274  0.22616060    -0.20700
F1396       F  0.77963852  0.68921958  0.24822117    -0.21800
F1397       F  0.80213352  0.66954964  0.21930485    -0.19000
F1398       F  0.76444576  0.77054459  0.14935895    -0.19100
F1399       F  0.73951456  0.74399230  0.12965113    -0.22900
F1400       F  0.78115386  0.74165783  0.12467540    -0.24500
C1401       C  0.70238968  0.67281460  0.21913817    -0.11300
C1402       C  0.70445019  0.65439726  0.23767928     0.11200
C1403       C  0.71678619  0.66034326  0.26017000    -0.03200
C1404       C  0.72734996  0.68417186  0.26276865    -0.05900
C1405       C  0.72506724  0.70276872  0.24439833    -0.16700
C1406       C  0.71097237  0.69735887  0.22275356     0.02300
C1407       C  0.69206550  0.62968371  0.23398448     0.12200
C1408       C  0.71890214  0.64170476  0.28144588     0.62800
H1409       H  0.73807901  0.68833241  0.27916972     0.12200
C1410       C  0.70305733  0.71664850  0.20365068     0.55000
H1411       H  0.69312869  0.66823911  0.20188860     0.08000
C1412       C  0.66581408  0.62720073  0.23438173    -0.05800
C1413       C  0.65548986  0.60313853  0.23386375    -0.06500
C1414       C  0.67021695  0.58133060  0.23378227    -0.16100
C1415       C  0.69649381  0.58388035  0.23244687    -0.01700
C1416       C  0.70686717  0.60812048  0.23183358    -0.09200
C1417       C  0.64859410  0.64974708  0.23589808     0.65000
H1418       H  0.63545569  0.60126355  0.23410117     0.10500
C1419       C  0.71357588  0.56136008  0.23164085     0.63400
H1420       H  0.72684131  0.61047249  0.23054710     0.07800
F1421       F  0.67735768  0.71693395  0.20228135    -0.19600
F1422       F  0.71238905  0.71021871  0.18055924    -0.15800
F1423       F  0.71076824  0.74049725  0.20934817    -0.19300
F1424       F  0.73415028  0.62211987  0.27460415    -0.22700
F1425       F  0.69558542  0.63265620  0.28765096    -0.24200
F1426       F  0.72898646  0.65238091  0.30252647    -0.18200
F1427       F  0.73816792  0.56809095  0.22779240    -0.20700
F1428       F  0.70661761  0.54579562  0.21245695    -0.21800
F1429       F  0.71223373  0.54855834  0.25397217    -0.19000
F1430       F  0.62391416  0.64287912  0.23874656    -0.19100
F1431       F  0.65024949  0.66365149  0.21430479    -0.22900
F1432       F  0.65503326  0.66448331  0.25593205    -0.24500
C1433       C  0.19034160  0.06215346  0.60621108    -0.11300
C1434       C  0.21013743  0.04980499  0.61765658     0.11200
C1435       C  0.23374041  0.04898053  0.60635060    -0.03200
C1436       C  0.23681955  0.06146693  0.58368476    -0.05900
C1437       C  0.21759517  0.07601826  0.57319880    -0.16700
C1438       C  0.19364434  0.07640448  0.58479686     0.02300
C1439       C  0.20519565  0.04043468  0.64272909     0.12200
C1440       C  0.25576423  0.03645247  0.61887930     0.62800
H1441       H  0.25502677  0.06142560  0.57496371     0.12200
C1442       C  0.17068869  0.09117288  0.57703431     0.55000
H1443       H  0.17224325  0.06207048  0.61530769     0.08000
C1444       C  0.19686832  0.05721275  0.66120151    -0.05800
C1445       C  0.18118431  0.04816560  0.67980590    -0.06500
C1446       C  0.17651003  0.02264093  0.68223974    -0.16100
C1447       C  0.18748771  0.00541519  0.66553601    -0.01700
C1448       C  0.20122788  0.01483274  0.64543621    -0.09200
C1449       C  0.20243915  0.08497252  0.66068468     0.65000
H1450       H  0.17259503  0.06116699  0.69260102     0.10500
C1451       C  0.18302126  0.97753676  0.66758994     0.63400
H1452       H  0.20706517  0.00253100  0.63059774     0.07800
F1453       F  0.16428902  0.10744349  0.59593187    -0.19600
F1454       F  0.15100479  0.07498561  0.57342793    -0.15800
F1455       F  0.17347718  0.10482887  0.55571189    -0.19300
F1456       F  0.25158394  0.01113269  0.62090911    -0.22700
F1457       F  0.25906702  0.04633146  0.64237093    -0.24200
F1458       F  0.27762486  0.03988997  0.60557650    -0.18200
F1459       F  0.19484058  0.96450741  0.64873934    -0.20700
F1460       F  0.15783655  0.97263539  0.66610121    -0.21800
F1461       F  0.19209044  0.96875321  0.69000010    -0.19000
F1462       F  0.21051915  0.09240597  0.68386858    -0.19100
F1463       F  0.18102543  0.09802740  0.65479478    -0.22900
F1464       F  0.22088817  0.09111009  0.64372293    -0.24500
C1465       C  0.51737578  0.36023144  0.19451597    -0.11300
C1466       C  0.53993819  0.35861254  0.20724075     0.11200
C1467       C  0.55119451  0.33508832  0.21114895    -0.03200
C1468       C  0.54228724  0.31461344  0.19755242    -0.05900
C1469       C  0.52141337  0.31706272  0.18217626    -0.16700
C1470       C  0.50705155  0.33929515  0.18305138     0.02300
C1471       C  0.55307546  0.38206709  0.21281525     0.12200
C1472       C  0.57262932  0.33206103  0.22916994     0.62800
H1473       H  0.55194962  0.29690767  0.19820725     0.12200
C1474       C  0.48143782  0.34214782  0.17154602     0.55000
H1475       H  0.50824440  0.37819517  0.19278369     0.08000
C1476       C  0.57024216  0.39217431  0.19557586    -0.05800
C1477       C  0.58273036  0.41415374  0.20175248    -0.06500
C1478       C  0.57776981  0.42699728  0.22395935    -0.16100
C1479       C  0.55976544  0.41722604  0.24090592    -0.01700
C1480       C  0.54772868  0.39471224  0.23491087    -0.09200
C1481       C  0.57458396  0.38022943  0.17032398     0.65000
H1482       H  0.59666817  0.42145336  0.18915325     0.10500
C1483       C  0.55379390  0.42972822  0.26554445     0.63400
H1484       H  0.53411972  0.38663042  0.24745966     0.07800
F1485       F  0.48337510  0.35407474  0.14880292    -0.19600
F1486       F  0.46644413  0.35640254  0.18695636    -0.15800
F1487       F  0.46966790  0.31950484  0.16853253    -0.19300
F1488       F  0.56517508  0.33989357  0.25252038    -0.22700
F1489       F  0.59262576  0.34631060  0.22164059    -0.24200
F1490       F  0.58032852  0.30748516  0.23096758    -0.18200
F1491       F  0.53686644  0.41610592  0.27950602    -0.20700
F1492       F  0.54350981  0.45298991  0.26125806    -0.21800
F1493       F  0.57526756  0.43212610  0.27947116    -0.19000
F1494       F  0.59272057  0.39251543  0.15666395    -0.19100
F1495       F  0.55263905  0.38067206  0.15707301    -0.22900
F1496       F  0.58204824  0.35582727  0.17293965    -0.24500
C1497       C  0.66250972  0.21230867  0.03899621    -0.11300
C1498       C  0.64269188  0.19985441  0.05048253     0.11200
C1499       C  0.64407803  0.17399374  0.05503675    -0.03200
C1500       C  0.66571306  0.16133713  0.04810757    -0.05900
C1501       C  0.68573061  0.17340562  0.03611091    -0.16700
C1502       C  0.68421408  0.19956697  0.03154376     0.02300
C1503       C  0.62098078  0.21427552  0.05901995     0.12200
C1504       C  0.62261914  0.15971698  0.06690666     0.62800
H1505       H  0.66664312  0.14147478  0.05146417     0.12200
C1506       C  0.70483228  0.21421640  0.01871315     0.55000
H1507       H  0.66065421  0.23216226  0.03580252     0.08000
C1508       C  0.62066955  0.22484627  0.08299551    -0.05800
C1509       C  0.59776969  0.23233438  0.09284698    -0.06500
C1510       C  0.57554876  0.22983057  0.07935550    -0.16100
C1511       C  0.57631749  0.22199898  0.05429675    -0.01700
C1512       C  0.59935157  0.21424018  0.04442612    -0.09200
C1513       C  0.64427401  0.22735280  0.09833838     0.65000
H1514       H  0.59692009  0.23937365  0.11168966     0.10500
C1515       C  0.55296982  0.22061687  0.03863827     0.63400
H1516       H  0.60041056  0.20653439  0.02585175     0.07800
F1517       F  0.72723987  0.21027358  0.03067754    -0.19600
F1518       F  0.70018790  0.23960710  0.01893790    -0.15800
F1519       F  0.70683060  0.20693311  0.99413119    -0.19300
F1520       F  0.60179900  0.16150517  0.05196702    -0.22700
F1521       F  0.61713943  0.16941981  0.09008251    -0.24200
F1522       F  0.62812415  0.13466792  0.06995563    -0.18200
F1523       F  0.54233027  0.24401957  0.03671890    -0.20700
F1524       F  0.53615720  0.20446675  0.04954130    -0.21800
F1525       F  0.55798649  0.21216969  0.01483150    -0.19000
F1526       F  0.63971559  0.23842981  0.12114063    -0.19100
F1527       F  0.66125534  0.24198434  0.08560586    -0.22900
F1528       F  0.65466988  0.20415604  0.10267770    -0.24500
C1529       C  0.50974272  0.37613202  0.07749130    -0.11300
C1530       C  0.48980828  0.38085246  0.06135557     0.11200
C1531       C  0.47264719  0.36132716  0.05657382    -0.03200
C1532       C  0.47489220  0.33858950  0.06972893    -0.05900
C1533       C  0.49424337  0.33423753  0.08662182    -0.16700
C1534       C  0.51269774  0.35295048  0.08965078     0.02300
C1535       C  0.48970306  0.40530055  0.04781374     0.12200
C1536       C  0.45224593  0.36283518  0.03727167     0.62800
H1537       H  0.46155822  0.32386907  0.06640619     0.12200
C1538       C  0.53584419  0.34836038  0.10503729     0.55000
H1539       H  0.52333647  0.39077691  0.08013594     0.08000
C1540       C  0.47501852  0.42596305  0.05526551    -0.05800
C1541       C  0.47665895  0.44851276  0.04157153    -0.06500
C1542       C  0.49351933  0.45145740  0.02161589    -0.16100
C1543       C  0.50779231  0.43036227  0.01403628    -0.01700
C1544       C  0.50553489  0.40782229  0.02726995    -0.09200
C1545       C  0.45831852  0.42426846  0.07801570     0.65000
H1546       H  0.46527120  0.46427188  0.04684903     0.10500
C1547       C  0.52533397  0.42986305  0.99189970     0.63400
H1548       H  0.51653065  0.39184266  0.02155423     0.07800
F1549       F  0.52933618  0.34633099  0.12973879    -0.19600
F1550       F  0.55287268  0.36760472  0.10273902    -0.15800
F1551       F  0.54742994  0.32664447  0.09738270    -0.19300
F1552       F  0.45026872  0.38591658  0.02603988    -0.22700
F1553       F  0.42970354  0.35740377  0.04849813    -0.24200
F1554       F  0.45703243  0.34541492  0.01896378    -0.18200
F1555       F  0.54892447  0.42331043  0.99980201    -0.20700
F1556       F  0.52692843  0.45230757  0.97961314    -0.21800
F1557       F  0.51719267  0.41216264  0.97514967    -0.19000
F1558       F  0.44566595  0.44634082  0.08230289    -0.19100
F1559       F  0.47257568  0.41891615  0.09873794    -0.22900
F1560       F  0.44091640  0.40561468  0.07490897    -0.24500
C1561       C  0.62097675  0.23366611  0.18389500    -0.11300
C1562       C  0.63283851  0.25646109  0.18811493     0.11200
C1563       C  0.62011629  0.27890212  0.18218811    -0.03200
C1564       C  0.59595983  0.27761283  0.17209018    -0.05900
C1565       C  0.58361115  0.25482690  0.16901008    -0.16700
C1566       C  0.59630088  0.23239044  0.17524009     0.02300
C1567       C  0.65799106  0.25620306  0.20000624     0.12200
C1568       C  0.63152471  0.30412764  0.18746070     0.62800
H1569       H  0.58640045  0.29452704  0.16655594     0.12200
C1570       C  0.58410327  0.20711391  0.17281499     0.55000
H1571       H  0.63126918  0.21674195  0.18770661     0.08000
C1572       C  0.66179436  0.24716417  0.22453069    -0.05800
C1573       C  0.68599056  0.24758052  0.23438456    -0.06500
C1574       C  0.70602306  0.25895382  0.22191488    -0.16100
C1575       C  0.70194765  0.26877606  0.19769169    -0.01700
C1576       C  0.67843136  0.26563771  0.18665749    -0.09200
C1577       C  0.64081722  0.23648876  0.24035011     0.65000
H1578       H  0.68951797  0.23849101  0.25199326     0.10500
C1579       C  0.72090136  0.28340288  0.18281731     0.63400
H1580       H  0.67582398  0.27140665  0.16751037     0.07800
F1581       F  0.59952800  0.18793914  0.18061164    -0.19600
F1582       F  0.57793762  0.20268511  0.14837377    -0.15800
F1583       F  0.56297922  0.20657755  0.18739707    -0.19300
F1584       F  0.65184320  0.30836254  0.17224928    -0.22700
F1585       F  0.63872045  0.30499905  0.21206779    -0.24200
F1586       F  0.61487126  0.32321868  0.18330567    -0.18200
F1587       F  0.72588885  0.27115534  0.16076093    -0.20700
F1588       F  0.74285525  0.28681211  0.19535001    -0.21800
F1589       F  0.71123631  0.30671286  0.17740822    -0.19000
F1590       F  0.64708663  0.23614222  0.26531345    -0.19100
F1591       F  0.63596214  0.21229320  0.23311713    -0.22900
F1592       F  0.61943256  0.25069363  0.23799390    -0.24500
C1593       C  0.59141779  0.04071304  0.00786546    -0.11300
C1594       C  0.59636414  0.05378490  0.98594162     0.11200
C1595       C  0.57832457  0.05381596  0.96675211    -0.03200
C1596       C  0.55521520  0.04175346  0.97103927    -0.05900
C1597       C  0.55024482  0.02826896  0.99313442    -0.16700
C1598       C  0.56930642  0.02732714  0.01161761     0.02300
C1599       C  0.62110555  0.06646614  0.98428964     0.12200
C1600       C  0.58382725  0.06577963  0.94171344     0.62800
H1601       H  0.54110728  0.04200546  0.95671917     0.12200
C1602       C  0.56884466  0.01176262  0.03520389     0.55000
H1603       H  0.60561522  0.04033765  0.02218738     0.08000
C1604       C  0.62432928  0.09210756  0.98969789    -0.05800
C1605       C  0.64862431  0.10167352  0.99148519    -0.06500
C1606       C  0.67001460  0.08642707  0.99050982    -0.16100
C1607       C  0.66674083  0.06044241  0.98652574    -0.01700
C1608       C  0.64239743  0.05120099  0.98250142    -0.09200
C1609       C  0.60326667  0.11014918  0.99555523     0.65000
H1610       H  0.65072115  0.12138338  0.99535872     0.10500
C1611       C  0.68836928  0.04222634  0.98764824     0.63400
H1612       H  0.63955279  0.03145555  0.97953697     0.07800
F1613       F  0.57161083  0.02718799  0.05558690    -0.19600
F1614       F  0.58850804  0.99507425  0.03464393    -0.15800
F1615       F  0.54747813  0.99826984  0.03833724    -0.19300
F1616       F  0.60463646  0.05472396  0.93128981    -0.22700
F1617       F  0.58830803  0.09094671  0.94451880    -0.24200
F1618       F  0.56418584  0.06304869  0.92533615    -0.18200
F1619       F  0.69822621  0.04203410  0.01138657    -0.20700
F1620       F  0.70658293  0.04902225  0.97078114    -0.21800
F1621       F  0.68107553  0.01814060  0.98212196    -0.19000
F1622       F  0.60411741  0.12992665  0.97899884    -0.19100
F1623       F  0.60651418  0.11923842  0.01935246    -0.22900
F1624       F  0.57985611  0.09963096  0.99441349    -0.24500
C1625       C  0.49027506  0.13054600  0.06424914    -0.11300
C1626       C  0.51234007  0.11658049  0.06584740     0.11200
C1627       C  0.53385247  0.12801979  0.07590995    -0.03200
C1628       C  0.53195435  0.15246777  0.08560483    -0.05900
C1629       C  0.50981903  0.16646977  0.08402760    -0.16700
C1630       C  0.48873845  0.15540304  0.07265129     0.02300
C1631       C  0.51264299  0.09125301  0.05402444     0.12200
C1632       C  0.55889744  0.11491339  0.07545329     0.62800
H1633       H  0.54795891  0.16106982  0.09424862     0.12200
C1634       C  0.46478596  0.16981167  0.06893978     0.55000
H1635       H  0.47426361  0.12184291  0.05572604     0.08000
C1636       C  0.51313261  0.06828511  0.06732774    -0.05800
C1637       C  0.51372124  0.04575208  0.05385343    -0.06500
C1638       C  0.51021960  0.04490808  0.02792564    -0.16100
C1639       C  0.50708887  0.06800230  0.01500975    -0.01700
C1640       C  0.50985185  0.09049427  0.02811805    -0.09200
C1641       C  0.51140027  0.06597899  0.09544160     0.65000
H1642       H  0.51596971  0.02847492  0.06401793     0.10500
C1643       C  0.49932707  0.07082185  0.98797198     0.63400
H1644       H  0.50833485  0.10799348  0.01804648     0.07800
F1645       F  0.44619302  0.15522941  0.05877170    -0.19600
F1646       F  0.46938645  0.18935168  0.05278854    -0.15800
F1647       F  0.45615371  0.17886218  0.09142466    -0.19300
F1648       F  0.57745885  0.12961981  0.08535667    -0.22700
F1649       F  0.56524234  0.10922965  0.05117781    -0.24200
F1650       F  0.55802075  0.09321358  0.08920429    -0.18200
F1651       F  0.47764824  0.08475907  0.98690676    -0.20700
F1652       F  0.49475270  0.04860092  0.97616718    -0.21800
F1653       F  0.51772191  0.08338441  0.97497068    -0.19000
F1654       F  0.49034689  0.05240687  0.10155700    -0.19100
F1655       F  0.50981412  0.08870103  0.10735197    -0.22900
F1656       F  0.53202959  0.05332096  0.10429148    -0.24500
C1657       C  0.68323519  0.02491646  0.86854458    -0.11300
C1658       C  0.69874260  0.04528262  0.86456598     0.11200
C1659       C  0.70411581  0.05338206  0.84003530    -0.03200
C1660       C  0.69126093  0.04227434  0.82014020    -0.05900
C1661       C  0.67373650  0.02338296  0.82444016    -0.16700
C1662       C  0.67032342  0.01392846  0.84894833     0.02300
C1663       C  0.70754680  0.05851175  0.88686907     0.12200
C1664       C  0.72322000  0.07357542  0.83512454     0.62800
H1665       H  0.69412567  0.04882237  0.80126118     0.12200
C1666       C  0.65193654  0.99350525  0.85493622     0.55000
H1667       H  0.68014489  0.01873359  0.88752181     0.08000
C1668       C  0.69182849  0.07505568  0.90012056    -0.05800
C1669       C  0.70120516  0.08672674  0.92137269    -0.06500
C1670       C  0.72525035  0.08167386  0.93019206    -0.16100
C1671       C  0.74055609  0.06411136  0.91749150    -0.01700
C1672       C  0.73127017  0.05288023  0.89586791    -0.09200
C1673       C  0.66508043  0.07991229  0.89227260     0.65000
H1674       H  0.68959166  0.09970801  0.93157404     0.10500
C1675       C  0.76670910  0.05752529  0.92607559     0.63400
H1676       H  0.74238755  0.03940763  0.88576702     0.07800
F1677       F  0.62833322  0.00278333  0.85141378    -0.19600
F1678       F  0.65355987  0.98546959  0.87939433    -0.15800
F1679       F  0.65618980  0.97316905  0.83979026    -0.19300
F1680       F  0.74640629  0.06536297  0.84268156    -0.22700
F1681       F  0.71711566  0.09478810  0.84824431    -0.24200
F1682       F  0.72464000  0.07975145  0.81013128    -0.18200
F1683       F  0.76568239  0.04608921  0.94915967    -0.20700
F1684       F  0.78105010  0.07887221  0.92742704    -0.21800
F1685       F  0.77847655  0.04124117  0.90991258    -0.19000
F1686       F  0.65424948  0.09897911  0.90585639    -0.19100
F1687       F  0.65102102  0.05864970  0.89587006    -0.22900
F1688       F  0.66423622  0.08650383  0.86747378    -0.24500
C1689       C  0.69669570  0.99224882  0.63863898    -0.11300
C1690       C  0.70972391  0.96980307  0.63980807     0.11200
C1691       C  0.71369729  0.95786060  0.66292900    -0.03200
C1692       C  0.70050972  0.96664783  0.68376910    -0.05900
C1693       C  0.68491948  0.98753581  0.68183970    -0.16700
C1694       C  0.68468389  0.00183333  0.65959572     0.02300
C1695       C  0.71511996  0.95733007  0.61612906     0.12200
C1696       C  0.73132888  0.93584760  0.66517176     0.62800
H1697       H  0.70132830  0.95665574  0.70127654     0.12200
C1698       C  0.66962950  0.02549302  0.65629944     0.55000
H1699       H  0.69443939  0.00137452  0.62074523     0.08000
C1700       C  0.69664640  0.94291625  0.60420936    -0.05800
C1701       C  0.70273434  0.93126640  0.58179957    -0.06500
C1702       C  0.72665575  0.93308359  0.57148264    -0.16100
C1703       C  0.74517822  0.94761371  0.58344414    -0.01700
C1704       C  0.73876465  0.96000097  0.60553002    -0.09200
C1705       C  0.67075411  0.93947344  0.61530522     0.65000
H1706       H  0.68900711  0.91993178  0.57241130     0.10500
C1707       C  0.77186688  0.94893477  0.57398513     0.63400
H1708       H  0.75231942  0.97132076  0.61515453     0.07800
F1709       F  0.64643611  0.01963012  0.64694897    -0.19600
F1710       F  0.68145279  0.04141876  0.63974546    -0.15800
F1711       F  0.66697920  0.03815590  0.67842426    -0.19300
F1712       F  0.75517374  0.94351413  0.65915544    -0.22700
F1713       F  0.72446051  0.91705133  0.64910036    -0.24200
F1714       F  0.73165764  0.92621707  0.68909449    -0.18200
F1715       F  0.78693448  0.96266032  0.58964899    -0.20700
F1716       F  0.77248512  0.96013608  0.55079418    -0.21800
F1717       F  0.78180189  0.92519320  0.57242631    -0.19000
F1718       F  0.65659677  0.92289328  0.60166783    -0.19100
F1719       F  0.65836429  0.96205896  0.61572788    -0.22900
F1720       F  0.67245649  0.93025528  0.63928548    -0.24500
C1721       C  0.69401872  0.88359113  0.76001058    -0.11300
C1722       C  0.69632454  0.87065116  0.73740964     0.11200
C1723       C  0.68940809  0.88326049  0.71510723    -0.03200
C1724       C  0.67890726  0.90748256  0.71654468    -0.05900
C1725       C  0.67650315  0.92032774  0.73918942    -0.16700
C1726       C  0.68528327  0.90850003  0.76122708     0.02300
C1727       C  0.70482990  0.84369040  0.73783079     0.12200
C1728       C  0.69304389  0.87137026  0.68973518     0.62800
H1729       H  0.67211917  0.91652799  0.69983967     0.12200
C1730       C  0.68486415  0.92174262  0.78615887     0.55000
H1731       H  0.69860728  0.87373815  0.77697430     0.08000
C1732       C  0.72903535  0.83603975  0.74535725    -0.05800
C1733       C  0.73491703  0.81024157  0.74582134    -0.06500
C1734       C  0.71876628  0.79185257  0.73637552    -0.16100
C1735       C  0.69535374  0.80004220  0.72703791    -0.01700
C1736       C  0.68816614  0.82520665  0.72997757    -0.09200
C1737       C  0.74907445  0.85493117  0.75168835     0.65000
H1738       H  0.75279344  0.80421510  0.75291213     0.10500
C1739       C  0.67795129  0.78410812  0.71201001     0.63400
H1740       H  0.66950215  0.83072701  0.72470158     0.07800
F1741       F  0.69427318  0.90693302  0.80506746    -0.19600
F1742       F  0.66075986  0.92817609  0.79245724    -0.15800
F1743       F  0.69932189  0.94301389  0.78479985    -0.19300
F1744       F  0.67573053  0.85276888  0.68611995    -0.22700
F1745       F  0.71676612  0.86144626  0.68783377    -0.24200
F1746       F  0.69012130  0.88858505  0.67078270    -0.18200
F1747       F  0.65550645  0.78159951  0.72442727    -0.20700
F1748       F  0.68766230  0.76098145  0.70736748    -0.21800
F1749       F  0.67372591  0.79547398  0.68925702    -0.19000
F1750       F  0.77209922  0.84370250  0.75476733    -0.19100
F1751       F  0.74323470  0.86714452  0.77350726    -0.22900
F1752       F  0.75119300  0.87219617  0.73263476    -0.24500
C1753       C  0.56675506  0.00287023  0.86814155    -0.11300
C1754       C  0.57083871  0.98158975  0.88294194     0.11200
C1755       C  0.58138571  0.96010722  0.87159033    -0.03200
C1756       C  0.58909862  0.96155347  0.84643449    -0.05900
C1757       C  0.58513925  0.98297095  0.83170075    -0.16700
C1758       C  0.57305294  0.00381751  0.84266844     0.02300
C1759       C  0.55966335  0.98209066  0.90856012     0.12200
C1760       C  0.58460733  0.93514355  0.88460170     0.62800
H1761       H  0.59837926  0.94564355  0.83812215     0.12200
C1762       C  0.56734178  0.02735304  0.82792593     0.55000
H1763       H  0.55797429  0.01883070  0.87682969     0.08000
C1764       C  0.57338331  0.98478852  0.93096902    -0.05800
C1765       C  0.56016798  0.98697846  0.95379321    -0.06500
C1766       C  0.53404222  0.99007428  0.95462063    -0.16100
C1767       C  0.52098083  0.98995688  0.93153005    -0.01700
C1768       C  0.53375622  0.98398743  0.90957790    -0.09200
C1769       C  0.60161592  0.98649508  0.93080244     0.65000
H1770       H  0.57031341  0.98718746  0.97113987     0.10500
C1771       C  0.49416216  0.99792183  0.92781212     0.63400
H1772       H  0.52342359  0.98303857  0.89228298     0.07800
F1773       F  0.58912233  0.03778319  0.81901070    -0.19600
F1774       F  0.55540079  0.04514519  0.84227396    -0.15800
F1775       F  0.55190295  0.02165410  0.80822475    -0.19300
F1776       F  0.57529698  0.93481363  0.90858290    -0.22700
F1777       F  0.60964879  0.92914994  0.88541123    -0.24200
F1778       F  0.57236991  0.91691816  0.87129230    -0.18200
F1779       F  0.49341830  0.01715297  0.91059756    -0.20700
F1780       F  0.48299046  0.00644190  0.94911983    -0.21800
F1781       F  0.48056959  0.97816024  0.91859604    -0.19000
F1782       F  0.61082196  0.99257007  0.95404224    -0.19100
F1783       F  0.60921941  0.00473110  0.91421564    -0.22900
F1784       F  0.61196859  0.96402273  0.92384580    -0.24500
C1785       C  0.54938763  0.63785692  0.32631026    -0.11300
C1786       C  0.54777745  0.64083313  0.30060852     0.11200
C1787       C  0.53652557  0.66227251  0.29040597    -0.03200
C1788       C  0.52710413  0.68043459  0.30674647    -0.05900
C1789       C  0.52956791  0.67807782  0.33273294    -0.16700
C1790       C  0.54193704  0.65658526  0.34275164     0.02300
C1791       C  0.55969279  0.62132794  0.28542189     0.12200
C1792       C  0.53451054  0.66577145  0.26248529     0.62800
H1793       H  0.51799260  0.69679837  0.29922362     0.12200
C1794       C  0.54804004  0.65283626  0.37029442     0.55000
H1795       H  0.55783149  0.62087310  0.33329234     0.08000
C1796       C  0.58588478  0.61958755  0.28414070    -0.05800
C1797       C  0.59641539  0.59790916  0.27454316    -0.06500
C1798       C  0.58187162  0.57742116  0.26723793    -0.16100
C1799       C  0.55551632  0.57982100  0.26695736    -0.01700
C1800       C  0.54486539  0.60197017  0.27622500    -0.09200
C1801       C  0.60280765  0.63959114  0.29473702     0.65000
H1802       H  0.61647895  0.59633702  0.27424847     0.10500
C1803       C  0.53865229  0.55894238  0.25836605     0.63400
H1804       H  0.52484080  0.60378597  0.27781630     0.07800
F1805       F  0.56237671  0.67237415  0.37885235    -0.19600
F1806       F  0.56156679  0.63123596  0.37453258    -0.15800
F1807       F  0.52640367  0.65110475  0.38413742    -0.19300
F1808       F  0.51988600  0.64711365  0.25261130    -0.22700
F1809       F  0.55790463  0.66473028  0.25171715    -0.24200
F1810       F  0.52390747  0.68850117  0.25637223    -0.18200
F1811       F  0.54293693  0.53771620  0.27239819    -0.20700
F1812       F  0.54324710  0.55403164  0.23356375    -0.21800
F1813       F  0.51371459  0.56510946  0.26074911    -0.19000
F1814       F  0.62765051  0.63504427  0.28950989    -0.19100
F1815       F  0.60028975  0.64014717  0.32024375    -0.22900
F1816       F  0.59667155  0.66265925  0.28500095    -0.24500
C1817       C  0.61166752  0.77020616  0.45143718    -0.11300
C1818       C  0.60637544  0.79076286  0.46645168     0.11200
C1819       C  0.58155118  0.79956917  0.46842754    -0.03200
C1820       C  0.56333020  0.78940853  0.45265380    -0.05900
C1821       C  0.56945119  0.77075241  0.43549356    -0.16700
C1822       C  0.59350156  0.75983381  0.43598685     0.02300
C1823       C  0.62795201  0.80602309  0.47416232     0.12200
C1824       C  0.57458353  0.81960844  0.48702013     0.62800
H1825       H  0.54454314  0.79677282  0.45275557     0.12200
C1826       C  0.60051017  0.73822980  0.41932740     0.55000
H1827       H  0.63075161  0.76369761  0.45033886     0.08000
C1828       C  0.64574874  0.79846006  0.49204000    -0.05800
C1829       C  0.66758456  0.81268709  0.49473593    -0.06500
C1830       C  0.67241808  0.83387942  0.47993858    -0.16100
C1831       C  0.65490888  0.84054380  0.46104275    -0.01700
C1832       C  0.63299574  0.82657777  0.45893425    -0.09200
C1833       C  0.64291562  0.77558731  0.50846812     0.65000
H1834       H  0.68091427  0.80718794  0.50882205     0.10500
C1835       C  0.65914653  0.86143554  0.44217684     0.63400
H1836       H  0.61958154  0.83116753  0.44461411     0.07800
F1837       F  0.62343356  0.72818984  0.42554724    -0.19600
F1838       F  0.60184737  0.74649100  0.39503586    -0.15800
F1839       F  0.58295197  0.71950183  0.42147752    -0.19300
F1840       F  0.58655391  0.84162734  0.48126216    -0.22700
F1841       F  0.58156283  0.81202392  0.51060841    -0.24200
F1842       F  0.54919973  0.82417079  0.48725762    -0.18200
F1843       F  0.68220417  0.85863909  0.43104507    -0.20700
F1844       F  0.65762142  0.88440170  0.45363697    -0.21800
F1845       F  0.64157357  0.86128124  0.42337473    -0.19000
F1846       F  0.64614100  0.78225668  0.53308488    -0.19100
F1847       F  0.66101299  0.75836128  0.50208765    -0.22900
F1848       F  0.61985738  0.76440485  0.50642170    -0.24500
C1849       C  0.47561126  0.62328263  0.41983638    -0.11300
C1850       C  0.48154347  0.62056655  0.44509203     0.11200
C1851       C  0.48647392  0.64266480  0.45891265    -0.03200
C1852       C  0.48794395  0.66593439  0.44619607    -0.05900
C1853       C  0.48189828  0.66851128  0.42077244    -0.16700
C1854       C  0.47333673  0.64673098  0.40813225     0.02300
C1855       C  0.48189316  0.59430081  0.45580627     0.12200
C1856       C  0.48932631  0.64229671  0.48702186     0.62800
H1857       H  0.49356962  0.68238960  0.45632357     0.12200
C1858       C  0.46103526  0.64756450  0.38265903     0.55000
H1859       H  0.47209163  0.60658576  0.40921889     0.08000
C1860       C  0.46250995  0.57679383  0.45148258    -0.05800
C1861       C  0.46647165  0.55133945  0.45705808    -0.06500
C1862       C  0.48744716  0.54266992  0.47013039    -0.16100
C1863       C  0.50547584  0.56082200  0.47720606    -0.01700
C1864       C  0.50324430  0.58561515  0.46825985    -0.09200
C1865       C  0.43704571  0.58380991  0.44130312     0.65000
H1866       H  0.45256305  0.53861503  0.45200259     0.10500
C1867       C  0.52664781  0.55615453  0.49532005     0.63400
H1868       H  0.51846701  0.59828762  0.47125626     0.07800
F1869       F  0.44973450  0.62514032  0.37686883    -0.19600
F1870       F  0.47847569  0.65253451  0.36434390    -0.15800
F1871       F  0.44260459  0.66563034  0.38244935    -0.19300
F1872       F  0.51338509  0.63585564  0.49336578    -0.22700
F1873       F  0.47284122  0.62554196  0.49768093    -0.24200
F1874       F  0.48433269  0.66550387  0.49706524    -0.18200
F1875       F  0.54910085  0.56179487  0.48395984    -0.20700
F1876       F  0.52778735  0.53205725  0.50417558    -0.21800
F1877       F  0.52354007  0.57164011  0.51563279    -0.19000
F1878       F  0.43185867  0.60890270  0.44402166    -0.19100
F1879       F  0.41866402  0.57087333  0.45395702    -0.22900
F1880       F  0.43578361  0.57748906  0.41643038    -0.24500
C1881       C  0.68216866  0.73027303  0.32146074    -0.11300
C1882       C  0.66002450  0.73259609  0.30780428     0.11200
C1883       C  0.66186738  0.73517886  0.28154511    -0.03200
C1884       C  0.68561434  0.73809306  0.27051079    -0.05900
C1885       C  0.70783657  0.73592474  0.28420656    -0.16700
C1886       C  0.70577588  0.72941581  0.30982617     0.02300
C1887       C  0.63526959  0.73312259  0.32119934     0.12200
C1888       C  0.63896099  0.73416403  0.26505254     0.62800
H1889       H  0.68696196  0.74227969  0.25087479     0.12200
C1890       C  0.72696958  0.71919230  0.32533431     0.55000
H1891       H  0.68112747  0.72850347  0.34148387     0.08000
C1892       C  0.62502161  0.71233820  0.33414376    -0.05800
C1893       C  0.60077240  0.71430802  0.34454579    -0.06500
C1894       C  0.58638889  0.73615765  0.34242482    -0.16100
C1895       C  0.59715173  0.75720377  0.33024706    -0.01700
C1896       C  0.62149009  0.75533044  0.32040611    -0.09200
C1897       C  0.63943666  0.68811507  0.33694511     0.65000
H1898       H  0.59279141  0.69866720  0.35443641     0.10500
C1899       C  0.58350253  0.78197298  0.32814570     0.63400
H1900       H  0.63004340  0.77135009  0.31157392     0.07800
F1901       F  0.74919666  0.71781803  0.31242867    -0.19600
F1902       F  0.72088672  0.69534043  0.33305121    -0.15800
F1903       F  0.73014475  0.73374611  0.34622529    -0.19300
F1904       F  0.62428598  0.75502170  0.26850387    -0.22700
F1905       F  0.62525742  0.71306655  0.27069467    -0.24200
F1906       F  0.64529583  0.73311864  0.24010562    -0.18200
F1907       F  0.57668004  0.79016162  0.35154182    -0.20700
F1908       F  0.56255201  0.77928905  0.31354111    -0.21800
F1909       F  0.59814612  0.80028196  0.31733067    -0.19000
F1910       F  0.62523411  0.66977357  0.34817571    -0.19100
F1911       F  0.66005772  0.69164649  0.35174104    -0.22900
F1912       F  0.64698739  0.67966265  0.31383758    -0.24500
C1913       C  0.58697335  0.97311310  0.49483147    -0.11300
C1914       C  0.59325105  0.95660115  0.51390848     0.11200
C1915       C  0.57587297  0.95165326  0.53313574    -0.03200
C1916       C  0.55142907  0.96086577  0.53066151    -0.05900
C1917       C  0.54451354  0.97618859  0.51059162    -0.16700
C1918       C  0.56325505  0.98396971  0.49347987     0.02300
C1919       C  0.61820128  0.94483625  0.51282851     0.12200
C1920       C  0.58338819  0.93734267  0.55631002     0.62800
H1921       H  0.53757999  0.95625866  0.54448973     0.12200
C1922       C  0.55890358  0.00437182  0.47448175     0.55000
H1923       H  0.60097336  0.97744308  0.48091548     0.08000
C1924       C  0.62164992  0.91973003  0.50558135    -0.05800
C1925       C  0.64577348  0.90993090  0.50566685    -0.06500
C1926       C  0.66685401  0.92476743  0.50992203    -0.16100
C1927       C  0.66364556  0.95066649  0.51407447    -0.01700
C1928       C  0.63917701  0.96003428  0.51652942    -0.09200
C1929       C  0.60121831  0.90257170  0.49628144     0.65000
H1930       H  0.64819905  0.89035998  0.50124715     0.10500
C1931       C  0.68553107  0.96842294  0.51535563     0.63400
H1932       H  0.63612992  0.97955831  0.52062156     0.07800
F1933       F  0.54287091  0.99601645  0.45652127    -0.19600
F1934       F  0.58072342  0.01157505  0.46269845    -0.15800
F1935       F  0.54908949  0.02513983  0.48607273    -0.19300
F1936       F  0.58945305  0.91307537  0.55035299    -0.22700
F1937       F  0.56441875  0.93679060  0.57380741    -0.24200
F1938       F  0.60382994  0.94867079  0.56699380    -0.18200
F1939       F  0.69786043  0.96874713  0.49273321    -0.20700
F1940       F  0.70177417  0.96096299  0.53368213    -0.21800
F1941       F  0.67803995  0.99254676  0.52063532    -0.19000
F1942       F  0.60684493  0.89558210  0.47217195    -0.19100
F1943       F  0.57781875  0.91326341  0.49614412    -0.22900
F1944       F  0.60040852  0.88141898  0.51103067    -0.24500
C1945       C  0.40180255  0.01720678  0.50567578    -0.11300
C1946       C  0.39843445  0.03989728  0.49336891     0.11200
C1947       C  0.41917493  0.05228765  0.48262665    -0.03200
C1948       C  0.44294314  0.04170831  0.48546634    -0.05900
C1949       C  0.44639243  0.01923163  0.49835003    -0.16700
C1950       C  0.42526901  0.00607032  0.50765239     0.02300
C1951       C  0.37370316  0.05188142  0.49533743     0.12200
C1952       C  0.41623073  0.07655149  0.46829534     0.62800
H1953       H  0.45911764  0.05097687  0.47776278     0.12200
C1954       C  0.42576801  0.98036560  0.51965710     0.55000
H1955       H  0.38585827  0.00817751  0.51422061     0.08000
C1956       C  0.35256897  0.04418663  0.48168160    -0.05800
C1957       C  0.33013384  0.05763552  0.48459088    -0.06500
C1958       C  0.32861938  0.07827016  0.50051459    -0.16100
C1959       C  0.34925291  0.08417074  0.51573600    -0.01700
C1960       C  0.37140950  0.07079732  0.51288497    -0.09200
C1961       C  0.35363460  0.02173173  0.46464250     0.65000
H1962       H  0.31367594  0.05214466  0.47451369     0.10500
C1963       C  0.34786920  0.10413904  0.53535963     0.63400
H1964       H  0.38750376  0.07529069  0.52411381     0.07800
F1965       F  0.40991183  0.96468375  0.50692122    -0.19600
F1966       F  0.41738815  0.98196410  0.54395398    -0.15800
F1967       F  0.44900208  0.96953732  0.51963799    -0.19300
F1968       F  0.40830981  0.09529834  0.48401482    -0.22700
F1969       F  0.39894967  0.07348176  0.44957067    -0.24200
F1970       F  0.43842713  0.08409445  0.45747864    -0.18200
F1971       F  0.36886866  0.10442495  0.55024810    -0.20700
F1972       F  0.32745674  0.09977884  0.55051424    -0.21800
F1973       F  0.34589360  0.12712017  0.52395436    -0.19000
F1974       F  0.33220186  0.01947489  0.45061112    -0.19100
F1975       F  0.35617268  0.00032229  0.47873563    -0.22900
F1976       F  0.37369153  0.02370087  0.44854678    -0.24500
C1977       C  0.52986552  0.99978036  0.59465041    -0.11300
C1978       C  0.55118383  0.01469370  0.59475515     0.11200
C1979       C  0.55899414  0.02596601  0.57202260    -0.03200
C1980       C  0.54400953  0.02317206  0.55061000    -0.05900
C1981       C  0.52272570  0.00791934  0.55050856    -0.16700
C1982       C  0.51593271  0.99551117  0.57310205     0.02300
C1983       C  0.56531711  0.01531418  0.61874512     0.12200
C1984       C  0.58308752  0.04035153  0.56885519     0.62800
H1985       H  0.54965376  0.03216512  0.53343227     0.12200
C1986       C  0.49560410  0.97609041  0.57585900     0.55000
H1987       H  0.52448058  0.99042999  0.61177889     0.08000
C1988       C  0.56747434  0.03659324  0.63431184    -0.05800
C1989       C  0.58022342  0.03425052  0.65720920    -0.06500
C1990       C  0.58892345  0.01110671  0.66601871    -0.16100
C1991       C  0.58586580  0.98971450  0.65081644    -0.01700
C1992       C  0.57464896  0.99241455  0.62733577    -0.09200
C1993       C  0.55637696  0.06192656  0.62823478     0.65000
H1994       H  0.58251620  0.05055472  0.66885049     0.10500
C1995       C  0.59506378  0.96411178  0.65870463     0.63400
H1996       H  0.57265569  0.97633733  0.61536926     0.07800
F1997       F  0.48088980  0.98129640  0.59637030    -0.19600
F1998       F  0.50635014  0.95291917  0.57941300    -0.15800
F1999       F  0.48034296  0.97495538  0.55562938    -0.19300
F2000       F  0.59759922  0.04050678  0.59000096    -0.22700
F2001       F  0.57766711  0.06473216  0.56239317    -0.24200
F2002       F  0.59695840  0.02966241  0.54993821    -0.18200
F2003       F  0.58466964  0.95742694  0.68130809    -0.20700
F2004       F  0.62065021  0.96443724  0.66058656    -0.21800
F2005       F  0.58882301  0.94587228  0.64166592    -0.19000
F2006       F  0.54075662  0.06910803  0.64744180    -0.19100
F2007       F  0.54260958  0.06227576  0.60660486    -0.22900
F2008       F  0.57538095  0.07914651  0.62587509    -0.24500
C2009       C  0.51391264  0.90812470  0.47319233    -0.11300
C2010       C  0.51470293  0.90841974  0.44732118     0.11200
C2011       C  0.51170458  0.93133392  0.43461011    -0.03200
C2012       C  0.50998378  0.95351973  0.44866118    -0.05900
C2013       C  0.50777267  0.95336601  0.47489456    -0.16700
C2014       C  0.50848837  0.92954205  0.48702723     0.02300
C2015       C  0.51500828  0.88367830  0.43488727     0.12200
C2016       C  0.50908965  0.93215555  0.40651662     0.62800
H2017       H  0.50941902  0.97105425  0.43892828     0.12200
C2018       C  0.50123599  0.92419793  0.51369176     0.55000
H2019       H  0.51515426  0.89025069  0.48265690     0.08000
C2020       C  0.53693322  0.87215644  0.42562104    -0.05800
C2021       C  0.53559340  0.84737941  0.41722235    -0.06500
C2022       C  0.51344817  0.83351967  0.41840943    -0.16100
C2023       C  0.49158103  0.84492787  0.42806063    -0.01700
C2024       C  0.49283586  0.86987140  0.43599282    -0.09200
C2025       C  0.56220776  0.88467290  0.42418554     0.65000
H2026       H  0.55216724  0.83869021  0.40954812     0.10500
C2027       C  0.46685305  0.83121588  0.42965647     0.63400
H2028       H  0.47646140  0.87884135  0.44369396     0.07800
F2029       F  0.52128618  0.91411344  0.52629541    -0.19600
F2030       F  0.48192028  0.90713354  0.51413716    -0.15800
F2031       F  0.49315449  0.94485214  0.52590642    -0.19300
F2032       F  0.48891123  0.91786226  0.39947818    -0.22700
F2033       F  0.53031713  0.92285990  0.39531474    -0.24200
F2034       F  0.50528589  0.95619244  0.39785050    -0.18200
F2035       F  0.44787302  0.84639257  0.43834510    -0.20700
F2036       F  0.46893997  0.81121139  0.44580627    -0.21800
F2037       F  0.46002241  0.82279243  0.40639923    -0.19000
F2038       F  0.56971598  0.88594564  0.39956602    -0.19100
F2039       F  0.57929504  0.87050168  0.43720598    -0.22900
F2040       F  0.56239652  0.90848747  0.43386707    -0.24500
C2041       C  0.45620163  0.89706966  0.26764509    -0.11300
C2042       C  0.45673038  0.89009774  0.29278210     0.11200
C2043       C  0.44523246  0.90581022  0.31065755    -0.03200
C2044       C  0.43219021  0.92707926  0.30239702    -0.05900
C2045       C  0.42927999  0.93264246  0.27708850    -0.16700
C2046       C  0.44254707  0.91801031  0.25933669     0.02300
C2047       C  0.46898817  0.86610119  0.30003482     0.12200
C2048       C  0.44639170  0.90003720  0.33835780     0.62800
H2049       H  0.42448390  0.93981199  0.31572849     0.12200
C2050       C  0.44210055  0.92400307  0.23168794     0.55000
H2051       H  0.46621771  0.88556151  0.25447581     0.08000
C2052       C  0.45738512  0.84261926  0.29649751    -0.05800
C2053       C  0.46714029  0.82152734  0.30890143    -0.06500
C2054       C  0.48807227  0.82332172  0.32429751    -0.16100
C2055       C  0.50158984  0.84601906  0.32480024    -0.01700
C2056       C  0.49168748  0.86709365  0.31270615    -0.09200
C2057       C  0.43452098  0.84000206  0.28022163     0.65000
H2058       H  0.45771716  0.80376527  0.30773078     0.10500
C2059       C  0.52500354  0.84913890  0.34004796     0.63400
H2060       H  0.50092897  0.88494495  0.31435880     0.07800
F2061       F  0.41787585  0.92402767  0.22311440    -0.19600
F2062       F  0.45540487  0.90674771  0.21788382    -0.15800
F2063       F  0.45269342  0.94712765  0.22753864    -0.19300
F2064       F  0.47058617  0.90233271  0.34667842    -0.22700
F2065       F  0.43811040  0.87604234  0.34287203    -0.24200
F2066       F  0.43170947  0.91614033  0.35212866    -0.18200
F2067       F  0.53941007  0.86855665  0.33099167    -0.20700
F2068       F  0.53942729  0.82779927  0.33931430    -0.21800
F2069       F  0.51845553  0.85437806  0.36432488    -0.19000
F2070       F  0.42518165  0.81596642  0.28065170    -0.19100
F2071       F  0.44062825  0.84576056  0.25588036    -0.22900
F2072       F  0.41600570  0.85598311  0.28826839    -0.24500
C2073       C  0.44606854  0.10597083  0.23180482    -0.11300
C2074       C  0.44989161  0.10889173  0.20622002     0.11200
C2075       C  0.44735179  0.08818634  0.19021578    -0.03200
C2076       C  0.43656699  0.06634000  0.19984869    -0.05900
C2077       C  0.42887165  0.06490515  0.22470633    -0.16700
C2078       C  0.43638099  0.08370797  0.24158120     0.02300
C2079       C  0.45734164  0.13363097  0.19681167     0.12200
C2080       C  0.45589385  0.08932736  0.16325902     0.62800
H2081       H  0.43353554  0.05045221  0.18797774     0.12200
C2082       C  0.43433994  0.08038552  0.26958972     0.55000
H2083       H  0.45013702  0.12151902  0.24392465     0.08000
C2084       C  0.43979706  0.15074773  0.18714535    -0.05800
C2085       C  0.44853917  0.17244653  0.17544490    -0.06500
C2086       C  0.47394806  0.17828315  0.17513869    -0.16100
C2087       C  0.49108226  0.16260760  0.18784271    -0.01700
C2088       C  0.48245377  0.14009864  0.19799007    -0.09200
C2089       C  0.41209464  0.14651853  0.19020090     0.65000
H2090       H  0.43561427  0.18502215  0.16638012     0.10500
C2091       C  0.51829404  0.16931250  0.19051259     0.63400
H2092       H  0.49525453  0.12711862  0.20665911     0.07800
F2093       F  0.40979329  0.07795471  0.27673395    -0.19600
F2094       F  0.44424257  0.10046989  0.28224760    -0.15800
F2095       F  0.44738673  0.05930587  0.27670825    -0.19300
F2096       F  0.48069419  0.09614490  0.16221127    -0.22700
F2097       F  0.44195890  0.10660740  0.15021356    -0.24200
F2098       F  0.45354158  0.06650534  0.15160603    -0.18200
F2099       F  0.52006238  0.19133548  0.20364861    -0.20700
F2100       F  0.52913242  0.17201051  0.16729749    -0.21800
F2101       F  0.53151281  0.15127468  0.20340268    -0.19000
F2102       F  0.39822523  0.16581419  0.18010012    -0.19100
F2103       F  0.40660991  0.14504483  0.21531283    -0.22900
F2104       F  0.40510347  0.12462319  0.17873288    -0.24500
C2105       C  0.30750833  0.05537997  0.35299109    -0.11300
C2106       C  0.30095805  0.03539937  0.36828096     0.11200
C2107       C  0.30311210  0.01082044  0.35907508    -0.03200
C2108       C  0.31247355  0.00744756  0.33473811    -0.05900
C2109       C  0.32273100  0.02736635  0.32090734    -0.16700
C2110       C  0.32113101  0.05193490  0.33112219     0.02300
C2111       C  0.29519998  0.04183285  0.39454552     0.12200
C2112       C  0.29736116  0.98831384  0.37527175     0.62800
H2113       H  0.31432856  0.98873505  0.32745842     0.12200
C2114       C  0.33446188  0.07535723  0.32240812     0.55000
H2115       H  0.30506189  0.07414446  0.36011025     0.08000
C2116       C  0.31209183  0.05647245  0.40858479    -0.05800
C2117       C  0.30295192  0.07029335  0.42859117    -0.06500
C2118       C  0.27832867  0.06804662  0.43679320    -0.16100
C2119       C  0.26224136  0.05071233  0.42494149    -0.01700
C2120       C  0.27078954  0.03866900  0.40327878    -0.09200
C2121       C  0.33923097  0.06026920  0.40156143     0.65000
H2122       H  0.31523307  0.08334923  0.43780050     0.10500
C2123       C  0.23578525  0.04595011  0.43391619     0.63400
H2124       H  0.25785539  0.02828019  0.39200276     0.07800
F2125       F  0.35018957  0.08349242  0.34097134    -0.19600
F2126       F  0.31715559  0.09386423  0.31789122    -0.15800
F2127       F  0.34866655  0.07239353  0.30161666    -0.19300
F2128       F  0.27223050  0.98747647  0.38068678    -0.22700
F2129       F  0.31069908  0.98969910  0.39718819    -0.24200
F2130       F  0.30370547  0.96622027  0.36359962    -0.18200
F2131       F  0.22371671  0.02848999  0.41938806    -0.20700
F2132       F  0.22210081  0.06778702  0.43313052    -0.21800
F2133       F  0.23623606  0.03684317  0.45801920    -0.19000
F2134       F  0.35373392  0.06061373  0.42270043    -0.19100
F2135       F  0.34187251  0.08301423  0.38974390    -0.22900
F2136       F  0.34816739  0.04149842  0.38635270    -0.24500
C2137       C  0.47107621  0.99193090  0.08973875    -0.11300
C2138       C  0.44735362  0.00290725  0.09099170     0.11200
C2139       C  0.43784148  0.01427650  0.06888524    -0.03200
C2140       C  0.45347915  0.01632339  0.04777329    -0.05900
C2141       C  0.47609619  0.00333691  0.04607684    -0.16700
C2142       C  0.48400515  0.98926024  0.06714334     0.02300
C2143       C  0.43409335  0.00266302  0.11584848     0.12200
C2144       C  0.41116727  0.02306001  0.06549543     0.62800
H2145       H  0.44694482  0.02650010  0.03166592     0.12200
C2146       C  0.50497792  0.97025810  0.06718940     0.55000
H2147       H  0.47879841  0.98343452  0.10632231     0.08000
C2148       C  0.43332291  0.98134528  0.13180029    -0.05800
C2149       C  0.42531089  0.98421945  0.15664986    -0.06500
C2150       C  0.41280552  0.00576258  0.16457327    -0.16100
C2151       C  0.40946575  0.02550943  0.14702705    -0.01700
C2152       C  0.42320545  0.02483000  0.12459592    -0.09200
C2153       C  0.43867467  0.95486196  0.12335274     0.65000
H2154       H  0.42618949  0.96832896  0.16915382     0.10500
C2155       C  0.38986224  0.04584800  0.15016771     0.63400
H2156       H  0.42378142  0.04112513  0.11269581     0.07800
F2157       F  0.49603657  0.94784552  0.07638138    -0.19600
F2158       F  0.52391501  0.97840787  0.08248755    -0.15800
F2159       F  0.51459783  0.96552867  0.04394650    -0.19300
F2160       F  0.41075894  0.04878730  0.06383496    -0.22700
F2161       F  0.39538169  0.01542287  0.08434282    -0.24200
F2162       F  0.40182613  0.01331123  0.04364359    -0.18200
F2163       F  0.39066416  0.06304991  0.13090866    -0.20700
F2164       F  0.39291876  0.05863279  0.17207828    -0.21800
F2165       F  0.36645384  0.03516443  0.15007626    -0.19000
F2166       F  0.41973040  0.93933671  0.13150275    -0.19100
F2167       F  0.46084040  0.94676538  0.13360960    -0.22900
F2168       F  0.43983864  0.95259312  0.09777461    -0.24500
C2169       C  0.41891490  0.97255479  0.37723856    -0.11300
C2170       C  0.42909891  0.99444453  0.38722147     0.11200
C2171       C  0.42824909  0.01644117  0.37222078    -0.03200
C2172       C  0.42182492  0.01435736  0.34685653    -0.05900
C2173       C  0.41004386  0.99294145  0.33770809    -0.16700
C2174       C  0.40553590  0.97297118  0.35474489     0.02300
C2175       C  0.44143900  0.99341231  0.41244507     0.12200
C2176       C  0.43130523  0.04266791  0.38234937     0.62800
H2177       H  0.42293334  0.03072580  0.33500590     0.12200
C2178       C  0.38388578  0.95480745  0.35203556     0.55000
H2179       H  0.41923049  0.95573116  0.38833077     0.08000
C2180       C  0.43185633  0.98013914  0.43348300    -0.05800
C2181       C  0.44686027  0.97752420  0.45491163    -0.06500
C2182       C  0.46868888  0.99146331  0.45807966    -0.16100
C2183       C  0.47650906  0.00719697  0.43811477    -0.01700
C2184       C  0.46436970  0.00556850  0.41510816    -0.09200
C2185       C  0.40552640  0.96999513  0.43523746     0.65000
H2186       H  0.44040557  0.96605027  0.47018972     0.10500
C2187       C  0.49675607  0.02676350  0.43969075     0.63400
H2188       H  0.47215031  0.01552626  0.39933746     0.07800
F2189       F  0.38377526  0.93699941  0.37075127    -0.19600
F2190       F  0.38441145  0.94246825  0.32964402    -0.15800
F2191       F  0.36179029  0.96797839  0.35375043    -0.19300
F2192       F  0.45346881  0.05270240  0.37387543    -0.22700
F2193       F  0.43070317  0.04346748  0.40805312    -0.24200
F2194       F  0.41187711  0.05744413  0.37398011    -0.18200
F2195       F  0.51555573  0.02116842  0.42296008    -0.20700
F2196       F  0.50682587  0.02883641  0.46303333    -0.21800
F2197       F  0.48681734  0.04974972  0.43344301    -0.19000
F2198       F  0.39570599  0.97516256  0.45845736    -0.19100
F2199       F  0.40592651  0.94443103  0.43215694    -0.22900
F2200       F  0.38969931  0.98066028  0.41798747    -0.24500
C2201       C  0.64689645  0.29558533  0.51969141    -0.11300
C2202       C  0.63441809  0.30277007  0.54144879     0.11200
C2203       C  0.64442388  0.32156132  0.55673407    -0.03200
C2204       C  0.66553120  0.33435207  0.54833602    -0.05900
C2205       C  0.67806860  0.32784054  0.52624744    -0.16700
C2206       C  0.66893173  0.30758785  0.51183636     0.02300
C2207       C  0.61105248  0.29016546  0.54847720     0.12200
C2208       C  0.63339736  0.32752571  0.58224157     0.62800
H2209       H  0.67232002  0.34988865  0.55911200     0.12200
C2210       C  0.68164052  0.29896737  0.48805264     0.55000
H2211       H  0.63899514  0.28061878  0.50881625     0.08000
C2212       C  0.58782019  0.30217209  0.54591700    -0.05800
C2213       C  0.56772418  0.29325642  0.56009835    -0.06500
C2214       C  0.56928683  0.27081318  0.57341957    -0.16100
C2215       C  0.59152714  0.25645116  0.57196849    -0.01700
C2216       C  0.61252845  0.26715125  0.56062478    -0.09200
C2217       C  0.58447717  0.32407384  0.52822968     0.65000
H2218       H  0.55102600  0.30426469  0.56143080     0.10500
C2219       C  0.59467696  0.23089666  0.58368377     0.63400
H2220       H  0.63041439  0.25780771  0.56177265     0.07800
F2221       F  0.68256555  0.31832563  0.47100754    -0.19600
F2222       F  0.66910976  0.27936019  0.47706466    -0.15800
F2223       F  0.70552074  0.29088309  0.49332490    -0.19300
F2224       F  0.63377674  0.30635903  0.59693033    -0.22700
F2225       F  0.60910536  0.33566320  0.58044289    -0.24200
F2226       F  0.64669520  0.34598417  0.59417532    -0.18200
F2227       F  0.60985735  0.21623149  0.56884683    -0.20700
F2228       F  0.57232059  0.21856554  0.58615515    -0.21800
F2229       F  0.60562546  0.23322869  0.60678008    -0.19000
F2230       F  0.55993683  0.33175983  0.52718652    -0.19100
F2231       F  0.59167748  0.31699194  0.50455803    -0.22900
F2232       F  0.59874323  0.34414374  0.53542693    -0.24500
C2233       C  0.53633582  0.08992140  0.71384757    -0.11300
C2234       C  0.54686334  0.11333506  0.71897437     0.11200
C2235       C  0.56739088  0.11480447  0.73530504    -0.03200
C2236       C  0.57985588  0.09278007  0.74153592    -0.05900
C2237       C  0.57132552  0.06942981  0.73364713    -0.16700
C2238       C  0.54785601  0.06767847  0.72195084     0.02300
C2239       C  0.53846749  0.13516786  0.70424573     0.12200
C2240       C  0.57708372  0.13884387  0.74644137     0.62800
H2241       H  0.59686459  0.09391728  0.75228533     0.12200
C2242       C  0.53523968  0.04278118  0.71807018     0.55000
H2243       H  0.51974640  0.08918068  0.70247997     0.08000
C2244       C  0.55208729  0.14322952  0.68317495    -0.05800
C2245       C  0.54378316  0.16428652  0.67010807    -0.06500
C2246       C  0.52182303  0.17708880  0.67665867    -0.16100
C2247       C  0.50788721  0.16859537  0.69771793    -0.01700
C2248       C  0.51669851  0.14776166  0.71122502    -0.09200
C2249       C  0.57489735  0.12909453  0.67398919     0.65000
H2250       H  0.55446483  0.17072125  0.65423968     0.10500
C2251       C  0.48351413  0.18061392  0.70566171     0.63400
H2252       H  0.50661902  0.14094317  0.72734420     0.07800
F2253       F  0.51221723  0.04547936  0.70686999    -0.19600
F2254       F  0.53170710  0.03121573  0.74084343    -0.15800
F2255       F  0.54974902  0.02771496  0.70321821    -0.19300
F2256       F  0.56420460  0.15966298  0.73846831    -0.22700
F2257       F  0.60197955  0.14176632  0.74046326    -0.24200
F2258       F  0.57485153  0.13749798  0.77205116    -0.18200
F2259       F  0.46666945  0.17960390  0.68632052    -0.20700
F2260       F  0.48757987  0.20514194  0.71232614    -0.21800
F2261       F  0.47287626  0.16857852  0.72589788    -0.19000
F2262       F  0.58377133  0.13849226  0.65164309    -0.19100
F2263       F  0.56894647  0.10435693  0.67043664    -0.22900
F2264       F  0.59381079  0.13051195  0.69120055    -0.24500
C2265       C  0.35179450  0.18717054  0.55784485    -0.11300
C2266       C  0.35931717  0.20524835  0.54070922     0.11200
C2267       C  0.34514562  0.20928525  0.51903504    -0.03200
C2268       C  0.32400442  0.19424036  0.51496226    -0.05900
C2269       C  0.31652459  0.17540569  0.53190413    -0.16700
C2270       C  0.33039758  0.17266552  0.55456312     0.02300
C2271       C  0.38182794  0.21975189  0.54737958     0.12200
C2272       C  0.35240253  0.22931446  0.50040423     0.62800
H2273       H  0.31372694  0.19655885  0.49782890     0.12200
C2274       C  0.32452616  0.15573839  0.57666372     0.55000
H2275       H  0.36281055  0.18466205  0.57457527     0.08000
C2276       C  0.38174378  0.23502431  0.56877178    -0.05800
C2277       C  0.40410858  0.23899933  0.58126575    -0.06500
C2278       C  0.42681173  0.22991435  0.57216203    -0.16100
C2279       C  0.42754565  0.21871790  0.54826561    -0.01700
C2280       C  0.40475243  0.21279378  0.53678596    -0.09200
C2281       C  0.35847900  0.24640365  0.57993349     0.65000
H2282       H  0.40373049  0.24924122  0.59862334     0.10500
C2283       C  0.45114885  0.21247763  0.53403183     0.63400
H2284       H  0.40486709  0.20146953  0.52012825     0.07800
F2285       F  0.32430020  0.16970131  0.59823354    -0.19600
F2286       F  0.34305370  0.13804234  0.57905931    -0.15800
F2287       F  0.30199018  0.14390485  0.57545106    -0.19300
F2288       F  0.37523695  0.22364118  0.48990940    -0.22700
F2289       F  0.35397315  0.25210327  0.51223545    -0.24200
F2290       F  0.33517959  0.23145805  0.48141512    -0.18200
F2291       F  0.45166042  0.18730576  0.52867380    -0.20700
F2292       F  0.47256895  0.21840858  0.54669663    -0.21800
F2293       F  0.45123325  0.22569700  0.51188680    -0.19000
F2294       F  0.36242487  0.27149610  0.58425330    -0.19100
F2295       F  0.35335614  0.23479448  0.60237489    -0.22900
F2296       F  0.33813808  0.24440327  0.56439832    -0.24500
C2297       C  0.47227386  0.35850872  0.69533895    -0.11300
C2298       C  0.46090470  0.35062203  0.71724799     0.11200
C2299       C  0.45779014  0.32475205  0.72177692    -0.03200
C2300       C  0.46404527  0.30773635  0.70264559    -0.05900
C2301       C  0.47385775  0.31603487  0.67976280    -0.16700
C2302       C  0.47946196  0.34168157  0.67696461     0.02300
C2303       C  0.44690844  0.37030877  0.73058801     0.12200
C2304       C  0.44942997  0.31536188  0.74711235     0.62800
H2305       H  0.46138518  0.28791310  0.70540719     0.12200
C2306       C  0.49398819  0.35130727  0.65517164     0.55000
H2307       H  0.47445861  0.37835856  0.69224277     0.08000
C2308       C  0.45829163  0.39211472  0.74003616    -0.05800
C2309       C  0.44403783  0.41412086  0.74219683    -0.06500
C2310       C  0.41885442  0.41511295  0.73497356    -0.16100
C2311       C  0.40735302  0.39247426  0.72685730    -0.01700
C2312       C  0.42165028  0.37078102  0.72507453    -0.09200
C2313       C  0.48557305  0.39328930  0.74695338     0.65000
H2314       H  0.45302428  0.43089797  0.74881738     0.10500
C2315       C  0.38019756  0.39037473  0.71979808     0.63400
H2316       H  0.41368308  0.35426217  0.71685744     0.07800
F2317       F  0.49902582  0.37653252  0.65704605    -0.19600
F2318       F  0.48037282  0.34735529  0.63379578    -0.15800
F2319       F  0.51653585  0.33889834  0.65440689    -0.19300
F2320       F  0.42640013  0.32496465  0.75342417    -0.22700
F2321       F  0.46654342  0.32274582  0.76476110    -0.24200
F2322       F  0.44783379  0.28961442  0.74774774    -0.18200
F2323       F  0.37309610  0.36627051  0.71414569    -0.20700
F2324       F  0.37539154  0.40484913  0.69911562    -0.21800
F2325       F  0.36603813  0.39771757  0.73973398    -0.19000
F2326       F  0.48780437  0.40227821  0.77092942    -0.19100
F2327       F  0.49778523  0.40929286  0.73081067    -0.22900
F2328       F  0.49705945  0.37021911  0.74605095    -0.24500
C2329       C  0.51095841  0.35310442  0.54218428    -0.11300
C2330       C  0.51337006  0.37566045  0.55532863     0.11200
C2331       C  0.51347790  0.37480276  0.58159176    -0.03200
C2332       C  0.51593191  0.35149845  0.59327809    -0.05900
C2333       C  0.51084178  0.32905157  0.58076458    -0.16700
C2334       C  0.50752629  0.33001902  0.55446615     0.02300
C2335       C  0.51268170  0.39946366  0.54092282     0.12200
C2336       C  0.50876804  0.39705445  0.59855123     0.62800
H2337       H  0.51971548  0.35125514  0.61234784     0.12200
C2338       C  0.49934259  0.30762829  0.53912912     0.55000
H2339       H  0.51013452  0.35400144  0.52213301     0.08000
C2340       C  0.52991809  0.41931745  0.54379617    -0.05800
C2341       C  0.52419786  0.44259187  0.53308628    -0.06500
C2342       C  0.50436902  0.44566370  0.51631866    -0.16100
C2343       C  0.48925146  0.42455486  0.51094099    -0.01700
C2344       C  0.49283659  0.40255175  0.52444402    -0.09200
C2345       C  0.55410473  0.41729468  0.55820592     0.65000
H2346       H  0.53569764  0.45838851  0.53770470     0.10500
C2347       C  0.46961303  0.42306323  0.49087980     0.63400
H2348       H  0.47993243  0.38726574  0.52172677     0.07800
F2349       F  0.49939912  0.31284864  0.51388080    -0.19600
F2350       F  0.47534205  0.30107963  0.54581241    -0.15800
F2351       F  0.51490921  0.28745757  0.54279352    -0.19300
F2352       F  0.50399985  0.41908596  0.58618095    -0.22700
F2353       F  0.52895445  0.40041151  0.61407995    -0.24200
F2354       F  0.48790750  0.39230520  0.61284549    -0.18200
F2355       F  0.47574109  0.40404509  0.47461467    -0.20700
F2356       F  0.46752058  0.44462294  0.47729512    -0.21800
F2357       F  0.44678626  0.41755798  0.50151652    -0.19000
F2358       F  0.57339188  0.42596974  0.54357711    -0.19100
F2359       F  0.55984245  0.39310947  0.56500314    -0.22900
F2360       F  0.55281304  0.43193024  0.57928972    -0.24500
C2361       C  0.50784496  0.12934767  0.56378618    -0.11300
C2362       C  0.48457646  0.11994531  0.55695915     0.11200
C2363       C  0.46287092  0.13434285  0.56178345    -0.03200
C2364       C  0.46533556  0.15724482  0.57446724    -0.05900
C2365       C  0.48875892  0.16666887  0.58109277    -0.16700
C2366       C  0.51046727  0.15288149  0.57485000     0.02300
C2367       C  0.48377135  0.09417051  0.54657619     0.12200
C2368       C  0.43729414  0.12568330  0.55351352     0.62800
H2369       H  0.44894956  0.16802709  0.57928552     0.12200
C2370       C  0.53637821  0.16254615  0.58029146     0.55000
H2371       H  0.52408565  0.11777360  0.56066810     0.08000
C2372       C  0.49369183  0.08795132  0.52293478    -0.05800
C2373       C  0.49456111  0.06264073  0.51589719    -0.06500
C2374       C  0.48433411  0.04350064  0.53074199    -0.16100
C2375       C  0.47280262  0.05034184  0.55361745    -0.01700
C2376       C  0.47424278  0.07518451  0.56170010    -0.09200
C2377       C  0.50288998  0.10791104  0.50501233     0.65000
H2378       H  0.50324898  0.05758930  0.49847541     0.10500
C2379       C  0.45811865  0.03305289  0.57013706     0.63400
H2380       H  0.46714285  0.07997765  0.57998683     0.07800
F2381       F  0.55476358  0.14655298  0.57179477    -0.19600
F2382       F  0.53941116  0.16518130  0.60558879    -0.15800
F2383       F  0.53975006  0.18525665  0.56860395    -0.19300
F2384       F  0.42983630  0.10535826  0.56749084    -0.22700
F2385       F  0.43800789  0.11908458  0.52867093    -0.24200
F2386       F  0.41955501  0.14423658  0.55630035    -0.18200
F2387       F  0.47112482  0.02902186  0.59191612    -0.20700
F2388       F  0.45322852  0.01081818  0.55880039    -0.21800
F2389       F  0.43541789  0.04384596  0.57595653    -0.19000
F2390       F  0.50893371  0.09806375  0.48198876    -0.19100
F2391       F  0.52389513  0.11934682  0.51430530    -0.22900
F2392       F  0.48448318  0.12562191  0.50153104    -0.24500
C2393       C  0.26528880  0.19355709  0.67230705    -0.11300
C2394       C  0.25442979  0.20815609  0.65352249     0.11200
C2395       C  0.24320321  0.23112566  0.65993495    -0.03200
C2396       C  0.24529143  0.23963075  0.68459260    -0.05900
C2397       C  0.25524266  0.22472363  0.70373401    -0.16700
C2398       C  0.26532433  0.20101101  0.69744224     0.02300
C2399       C  0.25237044  0.19717003  0.62814947     0.12200
C2400       C  0.22719091  0.24554630  0.64154920     0.62800
H2401       H  0.23757359  0.25761048  0.68956877     0.12200
C2402       C  0.27591945  0.18249318  0.71588144     0.55000
H2403       H  0.27299392  0.17553192  0.66736541     0.08000
C2404       C  0.27064456  0.20066575  0.60942379    -0.05800
C2405       C  0.26819441  0.18784282  0.58657893    -0.06500
C2406       C  0.24896346  0.17065947  0.58259645    -0.16100
C2407       C  0.23026447  0.16789507  0.60119757    -0.01700
C2408       C  0.23236171  0.18119370  0.62361765    -0.09200
C2409       C  0.29332465  0.21672595  0.61405644     0.65000
H2410       H  0.28192644  0.19028937  0.57202281     0.10500
C2411       C  0.20848262  0.15042405  0.59795336     0.63400
H2412       H  0.21875438  0.17855941  0.63831821     0.07800
F2413       F  0.30030489  0.17711046  0.70947798    -0.19600
F2414       F  0.26218160  0.16071616  0.71505693    -0.15800
F2415       F  0.27559646  0.19108031  0.73991907    -0.19300
F2416       F  0.20844515  0.23035868  0.63273140    -0.22700
F2417       F  0.24130038  0.25380165  0.62169986    -0.24200
F2418       F  0.21606586  0.26608455  0.65249323    -0.18200
F2419       F  0.21699506  0.12620722  0.59930150    -0.20700
F2420       F  0.19721040  0.15473967  0.57526259    -0.21800
F2421       F  0.19059800  0.15358554  0.61630827    -0.19000
F2422       F  0.30840884  0.21775002  0.59325940    -0.19100
F2423       F  0.30696283  0.20695013  0.63356532    -0.22900
F2424       F  0.28640118  0.24076962  0.61988270    -0.24500
C2425       C  0.20577360  0.10681470  0.73819332    -0.11300
C2426       C  0.19128618  0.12853171  0.74076552     0.11200
C2427       C  0.16530819  0.12613360  0.74484173    -0.03200
C2428       C  0.15464246  0.10224176  0.74459963    -0.05900
C2429       C  0.16898487  0.08041944  0.74224668    -0.16700
C2430       C  0.19531494  0.08268739  0.74045646     0.02300
C2431       C  0.20356595  0.15359955  0.74055125     0.12200
C2432       C  0.14869566  0.14857998  0.74988455     0.62800
H2433       H  0.13472278  0.10043969  0.74700603     0.12200
C2434       C  0.21251423  0.06023564  0.74221215     0.55000
H2435       H  0.22553934  0.10892271  0.73497898     0.08000
C2436       C  0.21918073  0.16178298  0.76009642    -0.05800
C2437       C  0.22723268  0.18676888  0.76016025    -0.06500
C2438       C  0.21966476  0.20417872  0.74205642    -0.16100
C2439       C  0.20354490  0.19595688  0.72282806    -0.01700
C2440       C  0.19692276  0.17059222  0.72182188    -0.09200
C2441       C  0.22750665  0.14437468  0.78082767     0.65000
H2442       H  0.24002701  0.19295694  0.77438260     0.10500
C2443       C  0.19153683  0.21271356  0.70364396     0.63400
H2444       H  0.18525408  0.16417559  0.70673502     0.07800
F2445       F  0.21045556  0.04972141  0.76564331    -0.19600
F2446       F  0.23718795  0.06673385  0.73846679    -0.15800
F2447       F  0.20644969  0.04258720  0.72471693    -0.19300
F2448       F  0.14457516  0.16162783  0.72809051    -0.22700
F2449       F  0.15961113  0.16416138  0.76710158    -0.24200
F2450       F  0.12582706  0.14149289  0.75939607    -0.18200
F2451       F  0.19841609  0.20496852  0.68010585    -0.20700
F2452       F  0.19785771  0.23734268  0.70636102    -0.21800
F2453       F  0.16592840  0.21093704  0.70580314    -0.19000
F2454       F  0.23915426  0.15716446  0.79983168    -0.19100
F2455       F  0.24423982  0.12714161  0.77154497    -0.22900
F2456       F  0.20724821  0.13205768  0.79096024    -0.24500
C2457       C  0.30425149  0.32811741  0.76861994    -0.11300
C2458       C  0.29211194  0.34732253  0.75560405     0.11200
C2459       C  0.27117847  0.34059461  0.74077637    -0.03200
C2460       C  0.26390822  0.31531147  0.73981494    -0.05900
C2461       C  0.27325316  0.29732449  0.75643878    -0.16700
C2462       C  0.29396170  0.30408401  0.77128447     0.02300
C2463       C  0.30264472  0.37347774  0.75702356     0.12200
C2464       C  0.25506142  0.35926425  0.72676944     0.62800
H2465       H  0.24926786  0.30984816  0.72712484     0.12200
C2466       C  0.30606813  0.28748374  0.79043213     0.55000
H2467       H  0.32185593  0.33198847  0.77741979     0.08000
C2468       C  0.30877715  0.38554214  0.77989960    -0.05800
C2469       C  0.32079060  0.40896166  0.77911656    -0.06500
C2470       C  0.32451904  0.42202708  0.75684085    -0.16100
C2471       C  0.31509169  0.41165405  0.73447333    -0.01700
C2472       C  0.30654796  0.38680157  0.73475369    -0.09200
C2473       C  0.30221506  0.37475009  0.80530531     0.65000
H2474       H  0.32715404  0.41743547  0.79612258     0.10500
C2475       C  0.31391469  0.42653913  0.71036925     0.63400
H2476       H  0.30241696  0.37770521  0.71737310     0.07800
F2477       F  0.30666934  0.29989089  0.81289451    -0.19600
F2478       F  0.33029160  0.28258077  0.78318061    -0.15800
F2479       F  0.29353075  0.26539872  0.79407560    -0.19300
F2480       F  0.26296305  0.36083172  0.70231179    -0.22700
F2481       F  0.25559462  0.38261754  0.73753772    -0.24200
F2482       F  0.23043038  0.35168440  0.72687153    -0.18200
F2483       F  0.33735402  0.43405673  0.70302385    -0.20700
F2484       F  0.29910805  0.44735106  0.71390431    -0.21800
F2485       F  0.30370857  0.41284309  0.69116411    -0.19000
F2486       F  0.30323019  0.39288347  0.82351098    -0.19100
F2487       F  0.31882623  0.35630744  0.81203686    -0.22900
F2488       F  0.27830751  0.36521911  0.80514092    -0.24500
C2489       C  0.33848197  0.24833773  0.72257241    -0.11300
C2490       C  0.34070655  0.26138676  0.70007458     0.11200
C2491       C  0.31899034  0.27160472  0.68906693    -0.03200
C2492       C  0.29620469  0.27043736  0.70229312    -0.05900
C2493       C  0.29394870  0.25726961  0.72486738    -0.16700
C2494       C  0.31545744  0.24516634  0.73470516     0.02300
C2495       C  0.36560394  0.26116760  0.68745364     0.12200
C2496       C  0.31965429  0.28243457  0.66296752     0.62800
H2497       H  0.27968855  0.27907217  0.69463516     0.12200
C2498       C  0.31554558  0.22750273  0.75689577     0.55000
H2499       H  0.35494107  0.23948731  0.73024498     0.08000
C2500       C  0.38216633  0.28179711  0.68680641    -0.05800
C2501       C  0.40539271  0.27924620  0.67463758    -0.06500
C2502       C  0.41327453  0.25650362  0.66447439    -0.16100
C2503       C  0.39716314  0.23553415  0.66620231    -0.01700
C2504       C  0.37355639  0.23842325  0.67738809    -0.09200
C2505       C  0.37707545  0.30653807  0.69933157     0.65000
H2506       H  0.41778568  0.29515359  0.67353006     0.10500
C2507       C  0.40415281  0.21027893  0.65562531     0.63400
H2508       H  0.36084974  0.22278041  0.67832255     0.07800
F2509       F  0.33255504  0.23551718  0.77432826    -0.19600
F2510       F  0.32298655  0.20414256  0.74899639    -0.15800
F2511       F  0.29266638  0.22524053  0.76842816    -0.19300
F2512       F  0.32914810  0.26492232  0.64664426    -0.22700
F2513       F  0.33452275  0.30338033  0.66231540    -0.24200
F2514       F  0.29613540  0.28910967  0.65482013    -0.18200
F2515       F  0.38751812  0.19189599  0.66283126    -0.20700
F2516       F  0.42746515  0.20321227  0.66377058    -0.21800
F2517       F  0.40403441  0.21145378  0.63001942    -0.19000
F2518       F  0.37757286  0.32533643  0.68166403    -0.19100
F2519       F  0.39559050  0.31085816  0.71650447    -0.22900
F2520       F  0.35449596  0.30746053  0.71168472    -0.24500
C2521       C  0.31523680  0.44795561  0.85713095    -0.11300
C2522       C  0.29208556  0.45941630  0.85989831     0.11200
C2523       C  0.28514974  0.47880708  0.84346697    -0.03200
C2524       C  0.30146374  0.48524624  0.82371761    -0.05900
C2525       C  0.32504129  0.47389333  0.82088555    -0.16700
C2526       C  0.33237552  0.45528095  0.83872177     0.02300
C2527       C  0.27662981  0.45066123  0.88124067     0.12200
C2528       C  0.26072583  0.49254531  0.84701948     0.62800
H2529       H  0.29612944  0.49975785  0.81074751     0.12200
C2530       C  0.35833387  0.44358290  0.83981522     0.55000
H2531       H  0.32007974  0.43355386  0.87044511     0.08000
C2532       C  0.26362033  0.42772998  0.88031281    -0.05800
C2533       C  0.25811076  0.41535704  0.90268322    -0.06500
C2534       C  0.26428870  0.42543051  0.92590796    -0.16100
C2535       C  0.27395167  0.44994634  0.92700216    -0.01700
C2536       C  0.28060531  0.46193724  0.90449227    -0.09200
C2537       C  0.25552505  0.41511087  0.85646791     0.65000
H2538       H  0.24942195  0.39712931  0.90194394     0.10500
C2539       C  0.27843983  0.46278455  0.95164870     0.63400
H2540       H  0.29047467  0.47951685  0.90491897     0.07800
F2541       F  0.36027675  0.42575129  0.85841127    -0.19600
F2542       F  0.37580607  0.46178698  0.84482664    -0.15800
F2543       F  0.36414304  0.43192472  0.81768447    -0.19300
F2544       F  0.26010222  0.50332503  0.87034889    -0.22700
F2545       F  0.24109993  0.47604802  0.84498405    -0.24200
F2546       F  0.25759606  0.51124317  0.82949429    -0.18200
F2547       F  0.29523697  0.44924498  0.96558711    -0.20700
F2548       F  0.25625912  0.46474669  0.96463556    -0.21800
F2549       F  0.28791603  0.48655775  0.94842354    -0.19000
F2550       F  0.22986139  0.41296373  0.85655724    -0.19100
F2551       F  0.26571237  0.39145944  0.85543968    -0.22900
F2552       F  0.26240553  0.42802567  0.83525396    -0.24500
C2553       C  0.22785748  0.45889205  0.09693655    -0.11300
C2554       C  0.22467700  0.44585848  0.11937936     0.11200
C2555       C  0.22992293  0.42004046  0.12037857    -0.03200
C2556       C  0.23546479  0.40755218  0.09821691    -0.05900
C2557       C  0.23680366  0.42010755  0.07527953    -0.16700
C2558       C  0.23433961  0.44648968  0.07472728     0.02300
C2559       C  0.20933081  0.45743416  0.13914481     0.12200
C2560       C  0.22662708  0.40487404  0.14405469     0.62800
H2561       H  0.23793103  0.38749616  0.09865857     0.12200
C2562       C  0.23678409  0.46132980  0.05075790     0.55000
H2563       H  0.22340370  0.47857567  0.09660110     0.08000
C2564       C  0.21853836  0.47397346  0.15726956    -0.05800
C2565       C  0.20241083  0.48164082  0.17656832    -0.06500
C2566       C  0.17748356  0.47344571  0.17795975    -0.16100
C2567       C  0.16829092  0.45721779  0.15891862    -0.01700
C2568       C  0.18450675  0.45001994  0.13984668    -0.09200
C2569       C  0.24508607  0.48347544  0.15605280     0.65000
H2570       H  0.20921722  0.49426797  0.19064189     0.10500
C2571       C  0.14180045  0.44685273  0.15805757     0.63400
H2572       H  0.17811491  0.43780620  0.12518927     0.07800
F2573       F  0.26063012  0.45886598  0.04129574    -0.19600
F2574       F  0.23238675  0.48648544  0.05443557    -0.15800
F2575       F  0.21977888  0.45280978  0.03354351    -0.19300
F2576       F  0.20193180  0.39805727  0.14666964    -0.22700
F2577       F  0.23379219  0.41840537  0.16467564    -0.24200
F2578       F  0.24103671  0.38348295  0.14330583    -0.18200
F2579       F  0.13826859  0.43077239  0.13828186    -0.20700
F2580       F  0.12474108  0.46598184  0.15530450    -0.21800
F2581       F  0.13680095  0.43351127  0.17953070    -0.19000
F2582       F  0.25058476  0.49886486  0.17591209    -0.19100
F2583       F  0.24853441  0.49695961  0.13435342    -0.22900
F2584       F  0.26154277  0.46364359  0.15638528    -0.24500
C2585       C  0.34492580  0.28890447  0.03744649    -0.11300
C2586       C  0.36767791  0.30057807  0.03199324     0.11200
C2587       C  0.36839594  0.32018685  0.01435556    -0.03200
C2588       C  0.34586660  0.32990163  0.00575048    -0.05900
C2589       C  0.32288258  0.31995254  0.01316129    -0.16700
C2590       C  0.32235965  0.29782871  0.02762763     0.02300
C2591       C  0.38974383  0.29325765  0.04666731     0.12200
C2592       C  0.39199470  0.33253001  0.00496545     0.62800
H2593       H  0.34621349  0.34638633  0.99398235     0.12200
C2594       C  0.29897569  0.28339595  0.03389572     0.55000
H2595       H  0.34471311  0.27317475  0.05017605     0.08000
C2596       C  0.39632410  0.30601766  0.06861075    -0.05800
C2597       C  0.41769015  0.29836202  0.08151700    -0.06500
C2598       C  0.43197529  0.27763297  0.07397903    -0.16100
C2599       C  0.42488914  0.26464601  0.05198935    -0.01700
C2600       C  0.40400694  0.27303566  0.03857680    -0.09200
C2601       C  0.38017722  0.32690488  0.07893789     0.65000
H2602       H  0.42290940  0.30819812  0.09824613     0.10500
C2603       C  0.43798227  0.24116486  0.04334736     0.63400
H2604       H  0.39820507  0.26357436  0.02180740     0.07800
F2605       F  0.29388446  0.28560530  0.05900146    -0.19600
F2606       F  0.30267769  0.25846702  0.02846945    -0.15800
F2607       F  0.27863373  0.29135704  0.02048179    -0.19300
F2608       F  0.41337145  0.32057626  0.01273914    -0.22700
F2609       F  0.39250723  0.35691355  0.01314279    -0.24200
F2610       F  0.39200771  0.33257199  0.97922768    -0.18200
F2611       F  0.43609088  0.22328192  0.06181329    -0.20700
F2612       F  0.46272457  0.24617702  0.03816557    -0.21800
F2613       F  0.42747627  0.23145852  0.02198626    -0.19000
F2614       F  0.38984964  0.33670102  0.10064220    -0.19100
F2615       F  0.35662709  0.31786651  0.08418083    -0.22900
F2616       F  0.37826905  0.34604657  0.06181095    -0.24500
C2617       C  0.09201346  0.47128257  0.00835947    -0.11300
C2618       C  0.09323717  0.44579853  0.01399689     0.11200
C2619       C  0.07074183  0.43262254  0.01824344    -0.03200
C2620       C  0.04789546  0.44556652  0.01669186    -0.05900
C2621       C  0.04649408  0.47092265  0.01025203    -0.16700
C2622       C  0.06918649  0.48392395  0.00550027     0.02300
C2623       C  0.11833558  0.43346569  0.01359137     0.12200
C2624       C  0.07072457  0.40488990  0.02371056     0.62800
H2625       H  0.03078565  0.43585502  0.02054818     0.12200
C2626       C  0.07107002  0.51061684  0.99626186     0.55000
H2627       H  0.10926592  0.48121629  0.00489126     0.08000
C2628       C  0.13285515  0.43144138  0.99151269    -0.05800
C2629       C  0.15757172  0.42268404  0.99314286    -0.06500
C2630       C  0.16777399  0.41396571  0.01557567    -0.16100
C2631       C  0.15294833  0.41512376  0.03752418    -0.01700
C2632       C  0.12881530  0.42563668  0.03621409    -0.09200
C2633       C  0.12323722  0.43789442  0.96571672     0.65000
H2634       H  0.16863147  0.42130077  0.97627612     0.10500
C2635       C  0.16283880  0.40640067  0.06246629     0.63400
H2636       H  0.11791988  0.42805866  0.05300996     0.07800
F2637       F  0.08446012  0.51102409  0.97421588    -0.19600
F2638       F  0.08360487  0.52471445  0.01367714    -0.15800
F2639       F  0.04839506  0.52165858  0.99176912    -0.19300
F2640       F  0.04693890  0.39498637  0.02321765    -0.22700
F2641       F  0.08066420  0.40043669  0.04696621    -0.24200
F2642       F  0.08480002  0.39265398  0.00606286    -0.18200
F2643       F  0.18424449  0.41936404  0.06789025    -0.20700
F2644       F  0.16798177  0.38116962  0.06185402    -0.21800
F2645       F  0.14596161  0.41049065  0.08155966    -0.19000
F2646       F  0.12947284  0.41903634  0.94931210    -0.19100
F2647       F  0.13426915  0.45978133  0.95772338    -0.22900
F2648       F  0.09767050  0.44069923  0.96486574    -0.24500
C2649       C  0.37260149  0.42551861  0.96400094    -0.11300
C2650       C  0.38341581  0.43305065  0.98651217     0.11200
C2651       C  0.36988008  0.42894768  0.00897416    -0.03200
C2652       C  0.34533203  0.41947977  0.00776393    -0.05900
C2653       C  0.33457625  0.41168519  0.98529601    -0.16700
C2654       C  0.34903856  0.41370108  0.96309868     0.02300
C2655       C  0.40858115  0.44563036  0.98601578     0.12200
C2656       C  0.38187554  0.43269495  0.03428229     0.62800
H2657       H  0.33471261  0.41682729  0.02473219     0.12200
C2658       C  0.33991410  0.40344216  0.93849565     0.55000
H2659       H  0.38304172  0.42865833  0.94703449     0.08000
C2660       C  0.43107238  0.43341122  0.97913230    -0.05800
C2661       C  0.45379475  0.44680910  0.97976450    -0.06500
C2662       C  0.45518030  0.47186767  0.98740229    -0.16100
C2663       C  0.43272476  0.48332718  0.99581699    -0.01700
C2664       C  0.40987248  0.47060882  0.99335910    -0.09200
C2665       C  0.43141805  0.40644255  0.97074994     0.65000
H2666       H  0.47084480  0.43728338  0.97512418     0.10500
C2667       C  0.43274907  0.50804129  0.00931551     0.63400
H2668       H  0.39261116  0.47991797  0.99812411     0.07800
F2669       F  0.35621824  0.40866220  0.91915985    -0.19600
F2670       F  0.31720867  0.41383486  0.93266113    -0.15800
F2671       F  0.33753474  0.37783941  0.94007915    -0.19300
F2672       F  0.38714191  0.45753189  0.03823407    -0.22700
F2673       F  0.40369755  0.41903541  0.03547590    -0.24200
F2674       F  0.36652330  0.42477850  0.05348822    -0.18200
F2675       F  0.43914626  0.52676031  0.99307803    -0.20700
F2676       F  0.44948343  0.50717053  0.02876308    -0.21800
F2677       F  0.40961434  0.51383390  0.01920642    -0.19000
F2678       F  0.45502556  0.39620424  0.97263107    -0.19100
F2679       F  0.42404011  0.40514658  0.94619173    -0.22900
F2680       F  0.41558721  0.39216545  0.98520569    -0.24500
C2681       C  0.21493442  0.32078491  0.87846146    -0.11300
C2682       C  0.23668541  0.30833756  0.87067536     0.11200
C2683       C  0.25816806  0.30954599  0.88601898    -0.03200
C2684       C  0.25627588  0.32116506  0.90934766    -0.05900
C2685       C  0.23470307  0.33385209  0.91698899    -0.16700
C2686       C  0.21387106  0.33444360  0.90084747     0.02300
C2687       C  0.23655766  0.29698467  0.84527182     0.12200
C2688       C  0.28399027  0.30065544  0.87857226     0.62800
H2689       H  0.27258360  0.32164802  0.92118957     0.12200
C2690       C  0.19080283  0.34964628  0.90683707     0.55000
H2691       H  0.19897056  0.32050754  0.86621064     0.08000
C2692       C  0.23768359  0.27097129  0.84101800    -0.05800
C2693       C  0.23938212  0.26236952  0.81627645    -0.06500
C2694       C  0.23607044  0.27831720  0.79562827    -0.16100
C2695       C  0.23045862  0.30381251  0.80050272    -0.01700
C2696       C  0.23272412  0.31287458  0.82491698    -0.09200
C2697       C  0.23563324  0.25238649  0.86227790     0.65000
H2698       H  0.24298593  0.24282192  0.81288574     0.10500
C2699       C  0.21973799  0.32198774  0.78194234     0.63400
H2700       H  0.22993562  0.33260186  0.82836051     0.07800
F2701       F  0.18174893  0.34304434  0.92998854    -0.19600
F2702       F  0.17208442  0.34592958  0.88961150    -0.15800
F2703       F  0.19661245  0.37473581  0.90666547    -0.19300
F2704       F  0.30008271  0.32077019  0.87847113    -0.22700
F2705       F  0.28483800  0.28989958  0.85535434    -0.24200
F2706       F  0.29242217  0.28340060  0.89579019    -0.18200
F2707       F  0.19673630  0.33002929  0.79039536    -0.20700
F2708       F  0.21636366  0.31163169  0.75891648    -0.21800
F2709       F  0.23517163  0.34245993  0.77990650    -0.19000
F2710       F  0.23369545  0.22817725  0.85367842    -0.19100
F2711       F  0.21456424  0.25757117  0.87621811    -0.22900
F2712       F  0.25622567  0.25366580  0.87743749    -0.24500
C2713       C  0.19552618  0.32933634  0.25325978    -0.11300
C2714       C  0.20460494  0.34541169  0.23482010     0.11200
C2715       C  0.22757043  0.33950830  0.22304086    -0.03200
C2716       C  0.23929904  0.31655852  0.22878279    -0.05900
C2717       C  0.22830259  0.29912568  0.24526496    -0.16700
C2718       C  0.21036185  0.30957986  0.26180558     0.02300
C2719       C  0.19228447  0.37026151  0.23228164     0.12200
C2720       C  0.23914411  0.35683968  0.20392397     0.62800
H2721       H  0.25665743  0.31188178  0.21969276     0.12200
C2722       C  0.21625174  0.31259370  0.28912878     0.55000
H2723       H  0.18023520  0.33581317  0.26482099     0.08000
C2724       C  0.16757285  0.37353581  0.22361663    -0.05800
C2725       C  0.15649358  0.39725659  0.22535763    -0.06500
C2726       C  0.16917644  0.41803501  0.23498657    -0.16100
C2727       C  0.19446376  0.41492404  0.24245979    -0.01700
C2728       C  0.20501535  0.39090262  0.24180577    -0.09200
C2729       C  0.15167890  0.35291629  0.21276886     0.65000
H2730       H  0.13734483  0.39932868  0.21940903     0.10500
C2731       C  0.21060205  0.43637707  0.25138816     0.63400
H2732       H  0.22324342  0.38781965  0.24974512     0.07800
F2733       F  0.19501577  0.30938896  0.30338428    -0.19600
F2734       F  0.22518241  0.33644069  0.29328270    -0.15800
F2735       F  0.23442649  0.29646721  0.29676412    -0.19300
F2736       F  0.25034807  0.37677139  0.21556928    -0.22700
F2737       F  0.22103911  0.36556575  0.18790130    -0.24200
F2738       F  0.25705776  0.34480235  0.18993814    -0.18200
F2739       F  0.23517333  0.42921905  0.25461342    -0.20700
F2740       F  0.20191148  0.44505383  0.27401527    -0.21800
F2741       F  0.21039809  0.45541878  0.23396678    -0.19000
F2742       F  0.14370015  0.36001288  0.18934083    -0.19100
F2743       F  0.13106929  0.34923877  0.22784407    -0.22900
F2744       F  0.16407493  0.33051054  0.21048254    -0.24500
C2745       C  0.24946014  0.21976115  0.34194164    -0.11300
C2746       C  0.24070761  0.19518648  0.34316819     0.11200
C2747       C  0.23120567  0.18435436  0.32084634    -0.03200
C2748       C  0.23076751  0.19878499  0.29873416    -0.05900
C2749       C  0.24193889  0.22234984  0.29722121    -0.16700
C2750       C  0.25217853  0.23267632  0.31933518     0.02300
C2751       C  0.24207740  0.18212495  0.36814345     0.12200
C2752       C  0.22175816  0.15775537  0.31915511     0.62800
H2753       H  0.22277206  0.19108809  0.28199693     0.12200
C2754       C  0.26682731  0.25677451  0.32075254     0.55000
H2755       H  0.25587207  0.22854872  0.35886619     0.08000
C2756       C  0.26371010  0.18262444  0.38351535    -0.05800
C2757       C  0.26207349  0.17388769  0.40828075    -0.06500
C2758       C  0.24151589  0.16014677  0.41682427    -0.16100
C2759       C  0.22127905  0.15642437  0.40002036    -0.01700
C2760       C  0.22081800  0.17012286  0.37754128    -0.09200
C2761       C  0.28929376  0.19070928  0.37442914     0.65000
H2762       H  0.27816555  0.17558509  0.42028048     0.10500
C2763       C  0.20130807  0.13669746  0.40402100     0.63400
H2764       H  0.20418951  0.17021875  0.36632399     0.07800
F2765       F  0.29009755  0.25178891  0.33057487    -0.19600
F2766       F  0.25465729  0.27319305  0.33644001    -0.15800
F2767       F  0.27023059  0.26819259  0.29802034    -0.19300
F2768       F  0.19631420  0.15747306  0.32315430    -0.22700
F2769       F  0.23334369  0.14218661  0.33608088    -0.24200
F2770       F  0.22639171  0.14815358  0.29572617    -0.18200
F2771       F  0.18324907  0.13748780  0.38570836    -0.20700
F2772       F  0.18945316  0.13975199  0.42644749    -0.21800
F2773       F  0.21213392  0.11332574  0.40334205    -0.19000
F2774       F  0.30720971  0.17435962  0.38324247    -0.19100
F2775       F  0.29451020  0.21428226  0.38328968    -0.22900
F2776       F  0.29116962  0.19068396  0.34879116    -0.24500
C2777       C  0.34177093  0.23002677  0.22711166    -0.11300
C2778       C  0.34919484  0.24764794  0.20927147     0.11200
C2779       C  0.33378705  0.26879420  0.20519480    -0.03200
C2780       C  0.30979083  0.26922342  0.21623489    -0.05900
C2781       C  0.30169401  0.24963894  0.23198206    -0.16700
C2782       C  0.32110280  0.23508716  0.24237592     0.02300
C2783       C  0.37336821  0.24418900  0.19596543     0.12200
C2784       C  0.34204312  0.29000549  0.18841363     0.62800
H2785       H  0.29721899  0.28430988  0.21178839     0.12200
C2786       C  0.32900301  0.24080800  0.26875501     0.55000
H2787       H  0.35475237  0.21552886  0.23251301     0.08000
C2788       C  0.39665820  0.24969103  0.20692588    -0.05800
C2789       C  0.41838123  0.24761363  0.19228059    -0.06500
C2790       C  0.41771907  0.24036696  0.16709257    -0.16100
C2791       C  0.39423090  0.23394318  0.15651343    -0.01700
C2792       C  0.37259688  0.23593693  0.17132313    -0.09200
C2793       C  0.39862542  0.25814088  0.23381958     0.65000
H2794       H  0.43618076  0.25210169  0.20047999     0.10500
C2795       C  0.39141037  0.22553595  0.12967829     0.63400
H2796       H  0.35454640  0.23161057  0.16357223     0.07800
F2797       F  0.34532303  0.26074010  0.26860414    -0.19600
F2798       F  0.34097387  0.22050170  0.27918234    -0.15800
F2799       F  0.30918146  0.24754434  0.28341399    -0.19300
F2800       F  0.34094611  0.28255830  0.16384899    -0.22700
F2801       F  0.36613908  0.29704749  0.19390263    -0.24200
F2802       F  0.32710160  0.31074453  0.19155056    -0.18200
F2803       F  0.40583723  0.20456865  0.12551631    -0.20700
F2804       F  0.39855143  0.24450806  0.11370701    -0.21800
F2805       F  0.36703997  0.21944085  0.12403263    -0.19000
F2806       F  0.42274791  0.26464322  0.24003041    -0.19100
F2807       F  0.39128113  0.23909086  0.24954525    -0.22900
F2808       F  0.38363759  0.27871577  0.23779405    -0.24500
C2809       C  0.27459241  0.15850333  0.24472101    -0.11300
C2810       C  0.29352647  0.15215392  0.26127042     0.11200
C2811       C  0.30208366  0.17030680  0.27825545    -0.03200
C2812       C  0.29187242  0.19457715  0.27722611    -0.05900
C2813       C  0.27512637  0.20203831  0.25848616    -0.16700
C2814       C  0.26447617  0.18266306  0.24365809     0.02300
C2815       C  0.30547233  0.12715375  0.25862301     0.12200
C2816       C  0.32191930  0.16403616  0.29735953     0.62800
H2817       H  0.29657961  0.20763560  0.29157449     0.12200
C2818       C  0.24117581  0.18513286  0.22800278     0.55000
H2819       H  0.26751569  0.14424575  0.23237186     0.08000
C2820       C  0.29512662  0.10481297  0.26833457    -0.05800
C2821       C  0.30850331  0.08224828  0.26540389    -0.06500
C2822       C  0.33150319  0.08149917  0.25286437    -0.16100
C2823       C  0.33982550  0.10325658  0.24037261    -0.01700
C2824       C  0.32703309  0.12583444  0.24403877    -0.09200
C2825       C  0.27033113  0.10485514  0.28191134     0.65000
H2826       H  0.30158565  0.06518541  0.27372120     0.10500
C2827       C  0.36106366  0.10245739  0.22189536     0.63400
H2828       H  0.33377716  0.14284035  0.23543481     0.07800
F2829       F  0.22252906  0.17065057  0.23840363    -0.19600
F2830       F  0.24575818  0.17665450  0.20413508    -0.15800
F2831       F  0.23265400  0.20913933  0.22642011    -0.19300
F2832       F  0.34356836  0.15663437  0.28550684    -0.22700
F2833       F  0.31370124  0.14498684  0.31261037    -0.24200
F2834       F  0.32757629  0.18422222  0.31224173    -0.18200
F2835       F  0.36228032  0.12416868  0.20801408    -0.20700
F2836       F  0.35754868  0.08300396  0.20549196    -0.21800
F2837       F  0.38327886  0.09941452  0.23431003    -0.19000
F2838       F  0.26402874  0.08133634  0.29051225    -0.19100
F2839       F  0.25177469  0.11278341  0.26599312    -0.22900
F2840       F  0.27136186  0.12068336  0.30208691    -0.24500
C2841       C  0.24230490  0.29327050  0.10568307    -0.11300
C2842       C  0.25742028  0.30052987  0.12557930     0.11200
C2843       C  0.27484834  0.32008496  0.12156526    -0.03200
C2844       C  0.27616290  0.33171583  0.09802631    -0.05900
C2845       C  0.26015411  0.32540915  0.07841450    -0.16700
C2846       C  0.24239521  0.30597026  0.08258911     0.02300
C2847       C  0.25405852  0.28748859  0.15019077     0.12200
C2848       C  0.29234596  0.32993134  0.14124558     0.62800
H2849       H  0.28961124  0.34652202  0.09520188     0.12200
C2850       C  0.22260454  0.29916307  0.06361267     0.55000
H2851       H  0.22977560  0.27776933  0.10870639     0.08000
C2852       C  0.23331955  0.29179535  0.16589795    -0.05800
C2853       C  0.23296678  0.28083434  0.18990488    -0.06500
C2854       C  0.25299522  0.26641738  0.19944226    -0.16100
C2855       C  0.26890559  0.25627456  0.18026801    -0.01700
C2856       C  0.27101857  0.26899309  0.15725185    -0.09200
C2857       C  0.21163767  0.30787891  0.15739719     0.65000
H2858       H  0.21694998  0.28423596  0.20150169     0.10500
C2859       C  0.28011657  0.23026462  0.17995122     0.63400
H2860       H  0.28487908  0.26305482  0.14378068     0.07800
F2861       F  0.20602356  0.28161753  0.07277891    -0.19600
F2862       F  0.23365061  0.28923767  0.04263599    -0.15800
F2863       F  0.20895687  0.32012001  0.05727174    -0.19300
F2864       F  0.31667275  0.32616046  0.13359440    -0.22700
F2865       F  0.28916010  0.31863591  0.16405464    -0.24200
F2866       F  0.28839610  0.35523721  0.14420801    -0.18200
F2867       F  0.27047613  0.21737411  0.15991053    -0.20700
F2868       F  0.27474757  0.21652070  0.20072884    -0.21800
F2869       F  0.30561331  0.23146848  0.17696824    -0.19000
F2870       F  0.19458365  0.31178015  0.17629085    -0.19100
F2871       F  0.19932201  0.29628137  0.13812460    -0.22900
F2872       F  0.22012877  0.33084896  0.14936009    -0.24500
C2873       C  0.89450338  0.31056279  0.43025937    -0.11300
C2874       C  0.88811090  0.29644244  0.45121041     0.11200
C2875       C  0.90268069  0.27559895  0.45792652    -0.03200
C2876       C  0.92395966  0.27001844  0.44362112    -0.05900
C2877       C  0.93058227  0.28407576  0.42238148    -0.16700
C2878       C  0.91547528  0.30499897  0.41560565     0.02300
C2879       C  0.86569538  0.30427394  0.46532883     0.12200
C2880       C  0.89541531  0.25906447  0.47974527     0.62800
H2881       H  0.93509389  0.25393252  0.44854608     0.12200
C2882       C  0.92061407  0.32148361  0.39299371     0.55000
H2883       H  0.88248091  0.32603418  0.42534480     0.08000
C2884       C  0.86623179  0.32519489  0.48122221    -0.05800
C2885       C  0.84374368  0.33439078  0.49056893    -0.06500
C2886       C  0.82079657  0.32424535  0.48365289    -0.16100
C2887       C  0.82026911  0.30181531  0.46980610    -0.01700
C2888       C  0.84292931  0.29245065  0.46044184    -0.09200
C2889       C  0.89018016  0.33882407  0.48707524     0.65000
H2890       H  0.84378798  0.35099911  0.50195826     0.10500
C2891       C  0.79693933  0.28706946  0.46417846     0.63400
H2892       H  0.84274078  0.27629200  0.44838348     0.07800
F2893       F  0.94491065  0.32990043  0.39337819    -0.19600
F2894       F  0.90532765  0.34228406  0.39243567    -0.15800
F2895       F  0.91637283  0.30830945  0.37136013    -0.19300
F2896       F  0.87234178  0.24857144  0.47548063    -0.22700
F2897       F  0.89434135  0.27298067  0.50130720    -0.24200
F2898       F  0.91228654  0.23986772  0.48333899    -0.18200
F2899       F  0.79373173  0.28553517  0.43872697    -0.20700
F2900       F  0.77572912  0.29724245  0.47450747    -0.21800
F2901       F  0.79966547  0.26321301  0.47365184    -0.19000
F2902       F  0.88657604  0.35750110  0.50443556    -0.19100
F2903       F  0.89941736  0.34970839  0.46564055    -0.22900
F2904       F  0.90742861  0.32227055  0.49660303    -0.24500
C2905       C  0.10306243  0.21977860  0.44712612    -0.11300
C2906       C  0.11184090  0.19619820  0.44057508     0.11200
C2907       C  0.09690623  0.17972756  0.42672605    -0.03200
C2908       C  0.07378876  0.18829237  0.41845237    -0.05900
C2909       C  0.06561390  0.21270765  0.42332012    -0.16700
C2910       C  0.08013782  0.22863375  0.43854883     0.02300
C2911       C  0.13559083  0.18841289  0.45122382     0.12200
C2912       C  0.10533940  0.15337962  0.42070278     0.62800
H2913       H  0.06239041  0.17635862  0.40694970     0.12200
C2914       C  0.07246736  0.25516598  0.44483679     0.55000
H2915       H  0.11475398  0.23138667  0.45866970     0.08000
C2916       C  0.15873807  0.19327855  0.43953172    -0.05800
C2917       C  0.18031895  0.18398636  0.45085824    -0.06500
C2918       C  0.17893306  0.17117975  0.47350868    -0.16100
C2919       C  0.15632195  0.17055336  0.48708961    -0.01700
C2920       C  0.13466908  0.17795121  0.47500937    -0.09200
C2921       C  0.16061038  0.20809239  0.41548793     0.65000
H2922       H  0.19820322  0.18558162  0.44163370     0.10500
C2923       C  0.15403023  0.16323491  0.51430569     0.63400
H2924       H  0.11685934  0.17616701  0.48445622     0.07800
F2925       F  0.08951237  0.26670114  0.46024875    -0.19600
F2926       F  0.04977056  0.25500816  0.45706652    -0.15800
F2927       F  0.07075306  0.26922478  0.42329001    -0.19300
F2928       F  0.10942011  0.14044383  0.44250043    -0.22700
F2929       F  0.12717440  0.15384153  0.40707084    -0.24200
F2930       F  0.08772294  0.14053483  0.40706116    -0.18200
F2931       F  0.13972876  0.18080094  0.52664715    -0.20700
F2932       F  0.17674594  0.16225063  0.52615136    -0.21800
F2933       F  0.14238789  0.14039508  0.51640303    -0.19000
F2934       F  0.18503171  0.21037952  0.40746021    -0.19100
F2935       F  0.15112416  0.23176380  0.41912726    -0.22900
F2936       F  0.14727854  0.19657490  0.39692393    -0.24500
C2937       C  0.06697077  0.34640984  0.31183482    -0.11300
C2938       C  0.04825183  0.36081525  0.30096362     0.11200
C2939       C  0.02359790  0.35176281  0.30044586    -0.03200
C2940       C  0.01865233  0.32846114  0.31141316    -0.05900
C2941       C  0.03683816  0.31537347  0.32513219    -0.16700
C2942       C  0.06162167  0.32504064  0.32583619     0.02300
C2943       C  0.05526134  0.38613794  0.29243459     0.12200
C2944       C  0.00238983  0.36716597  0.28977046     0.62800
H2945       H  0.99976547  0.32143061  0.31124265     0.12200
C2946       C  0.08306417  0.31587996  0.34193427     0.55000
H2947       H  0.08593635  0.35333258  0.31124623     0.08000
C2948       C  0.06471279  0.40396949  0.30933874    -0.05800
C2949       C  0.07620813  0.42527998  0.29970700    -0.06500
C2950       C  0.07633373  0.43066082  0.27420151    -0.16100
C2951       C  0.06499500  0.41386024  0.25740509    -0.01700
C2952       C  0.05521744  0.39141130  0.26686691    -0.09200
C2953       C  0.06348044  0.40039970  0.33742263     0.65000
H2954       H  0.08654911  0.43723565  0.31208229     0.10500
C2955       C  0.06499906  0.41850285  0.22953811     0.63400
H2956       H  0.04873467  0.37720019  0.25423308     0.07800
F2957       F  0.08806213  0.33358238  0.35985902    -0.19600
F2958       F  0.10418411  0.31287615  0.32745569    -0.15800
F2959       F  0.07873976  0.29373256  0.35382385    -0.19300
F2960       F  0.00498411  0.36915262  0.26427118    -0.22700
F2961       F  0.00245884  0.39074240  0.30011202    -0.24200
F2962       F  0.97942879  0.35651127  0.29471124    -0.18200
F2963       F  0.08916459  0.41915063  0.22070732    -0.20700
F2964       F  0.05340173  0.44094075  0.22438794    -0.21800
F2965       F  0.05243577  0.40000056  0.21683684    -0.19000
F2966       F  0.06842913  0.42233154  0.34984426    -0.19100
F2967       F  0.08087110  0.38311301  0.34514040    -0.22900
F2968       F  0.03992639  0.39259252  0.34436538    -0.24500
C2969       C  0.01460562  0.37374307  0.42475828    -0.11300
C2970       C  0.99634410  0.37720039  0.44307629     0.11200
C2971       C  0.98030535  0.35705427  0.44906002    -0.03200
C2972       C  0.98309989  0.33406645  0.43643162    -0.05900
C2973       C  0.00107370  0.33082583  0.41772330    -0.16700
C2974       C  0.01744424  0.35089112  0.41218399     0.02300
C2975       C  0.99465049  0.40229697  0.45528919     0.12200
C2976       C  0.95991183  0.36005756  0.46822125     0.62800
H2977       H  0.97065991  0.31869809  0.44043026     0.12200
C2978       C  0.03803311  0.34819422  0.39313135     0.55000
H2979       H  0.02660782  0.38933848  0.42024031     0.08000
C2980       C  0.01148002  0.40967667  0.47410688    -0.05800
C2981       C  0.01020546  0.43421737  0.48328487    -0.06500
C2982       C  0.99327499  0.45198686  0.47406364    -0.16100
C2983       C  0.97617396  0.44451678  0.45543390    -0.01700
C2984       C  0.97721094  0.41977322  0.44641995    -0.09200
C2985       C  0.03088388  0.39179539  0.48444069     0.65000
H2986       H  0.02276506  0.43987395  0.49783559     0.10500
C2987       C  0.95664198  0.46152576  0.44426235     0.63400
H2988       H  0.96453414  0.41415254  0.43183276     0.07800
F2989       F  0.05388945  0.36851143  0.39299055    -0.19600
F2990       F  0.02770517  0.34614349  0.36977624    -0.15800
F2991       F  0.05204178  0.32722212  0.39849382    -0.19300
F2992       F  0.94292943  0.37758053  0.45996790    -0.22700
F2993       F  0.96985719  0.36777054  0.49053520    -0.24200
F2994       F  0.94758283  0.33784980  0.47238698    -0.18200
F2995       F  0.95983184  0.46249851  0.41873017    -0.20700
F2996       F  0.95772921  0.48553449  0.45322026    -0.21800
F2997       F  0.93326850  0.45201465  0.44950421    -0.19000
F2998       F  0.04491363  0.40262618  0.50305877    -0.19100
F2999       F  0.04701680  0.38445757  0.46576694    -0.22900
F3000       F  0.01936134  0.37098168  0.49433060    -0.24500
C3001       C  0.88701474  0.25252865  0.29922021    -0.11300
C3002       C  0.86687283  0.25575619  0.31569236     0.11200
C3003       C  0.87142788  0.25956996  0.34121008    -0.03200
C3004       C  0.89604701  0.25842321  0.34968274    -0.05900
C3005       C  0.91642040  0.25414489  0.33356147    -0.16700
C3006       C  0.91191168  0.25211517  0.30764980     0.02300
C3007       C  0.84115470  0.25483753  0.30571894     0.12200
C3008       C  0.85036693  0.26479982  0.35945428     0.62800
H3009       H  0.89947780  0.26067989  0.36938307     0.12200
C3010       C  0.93291358  0.24886323  0.28907323     0.55000
H3011       H  0.88296715  0.25021676  0.27964564     0.08000
C3012       C  0.83051682  0.27450811  0.29176202    -0.05800
C3013       C  0.80708949  0.27084174  0.28098006    -0.06500
C3014       C  0.79350665  0.24852969  0.28381660    -0.16100
C3015       C  0.80361714  0.22941166  0.29928261    -0.01700
C3016       C  0.82745812  0.23289930  0.30952048    -0.09200
C3017       C  0.84272985  0.29967920  0.28742093     0.65000
H3018       H  0.79946607  0.28560577  0.26944229     0.10500
C3019       C  0.79086266  0.20516565  0.30608866     0.63400
H3020       H  0.83574689  0.21801443  0.32042060     0.07800
F3021       F  0.94869714  0.26916837  0.28997985    -0.19600
F3022       F  0.92423506  0.24683193  0.26494159    -0.15800
F3023       F  0.94599526  0.22746133  0.29464056    -0.19300
F3024       F  0.83575818  0.24378897  0.36223813    -0.22700
F3025       F  0.83581430  0.28423261  0.35075453    -0.24200
F3026       F  0.85920167  0.27140323  0.38269230    -0.18200
F3027       F  0.80514487  0.18532882  0.29801689    -0.20700
F3028       F  0.76744059  0.20301389  0.29607997    -0.21800
F3029       F  0.78889090  0.20347076  0.33169590    -0.19000
F3030       F  0.82684207  0.31827450  0.29561445    -0.19100
F3031       F  0.84690859  0.30291582  0.26220758    -0.22900
F3032       F  0.86510647  0.30247255  0.29967050    -0.24500
C3033       C  0.12267263  0.22745948  0.32232235    -0.11300
C3034       C  0.12696983  0.24594221  0.30440378     0.11200
C3035       C  0.10711065  0.26205908  0.29749797    -0.03200
C3036       C  0.08426074  0.26034580  0.31052695    -0.05900
C3037       C  0.08107357  0.24376716  0.33053005    -0.16700
C3038       C  0.10024832  0.22632531  0.33584370     0.02300
C3039       C  0.15286241  0.24865607  0.29443778     0.12200
C3040       C  0.11008053  0.28130247  0.27689426     0.62800
H3041       H  0.06901039  0.27270426  0.30588310     0.12200
C3042       C  0.09738804  0.20683967  0.35602039     0.55000
H3043       H  0.13758558  0.21448282  0.32636811     0.08000
C3044       C  0.17302003  0.25611634  0.30959528    -0.05800
C3045       C  0.19701769  0.25742297  0.29906569    -0.06500
C3046       C  0.20165889  0.25377248  0.27352539    -0.16100
C3047       C  0.18106760  0.24622041  0.25842221    -0.01700
C3048       C  0.15747484  0.24303318  0.26950701    -0.09200
C3049       C  0.16961854  0.26235784  0.33698331     0.65000
H3050       H  0.21241057  0.26153222  0.31111598     0.10500
C3051       C  0.18192003  0.24008506  0.23090776     0.63400
H3052       H  0.14228679  0.23590921  0.25839826     0.07800
F3053       F  0.09710173  0.21855133  0.37881804    -0.19600
F3054       F  0.11678780  0.18981994  0.35593277    -0.15800
F3055       F  0.07554760  0.19372631  0.35257403    -0.19300
F3056       F  0.11229756  0.26946254  0.25421026    -0.22700
F3057       F  0.13104011  0.29564756  0.28097590    -0.24200
F3058       F  0.08975766  0.29714441  0.27557238    -0.18200
F3059       F  0.20436974  0.24470639  0.21983771    -0.20700
F3060       F  0.16424206  0.25421062  0.21855670    -0.21800
F3061       F  0.17640480  0.21512031  0.22770797    -0.19000
F3062       F  0.18976056  0.27548481  0.34614748    -0.19100
F3063       F  0.16731098  0.24063961  0.35068716    -0.22900
F3064       F  0.14863627  0.27694512  0.34043293    -0.24500
C3065       C  0.79192863  0.46472952  0.65857841    -0.11300
C3066       C  0.80140317  0.47150590  0.63526491     0.11200
C3067       C  0.82063267  0.48932184  0.63374553    -0.03200
C3068       C  0.83345257  0.49547667  0.65565110    -0.05900
C3069       C  0.82606895  0.48601963  0.67896944    -0.16700
C3070       C  0.80320296  0.47279366  0.68067671     0.02300
C3071       C  0.79326144  0.45719671  0.61322280     0.12200
C3072       C  0.82699974  0.50196441  0.60926475     0.62800
H3073       H  0.84940243  0.50772293  0.65473519     0.12200
C3074       C  0.78955443  0.46664107  0.70453860     0.55000
H3075       H  0.77595529  0.45240627  0.65950326     0.08000
C3076       C  0.80443764  0.43405700  0.60750477    -0.05800
C3077       C  0.79614864  0.42105527  0.58658142    -0.06500
C3078       C  0.77630157  0.42958354  0.57175199    -0.16100
C3079       C  0.76523088  0.45310184  0.57746438    -0.01700
C3080       C  0.77416611  0.46654267  0.59815305    -0.09200
C3081       C  0.82445322  0.42258760  0.62400498     0.65000
H3082       H  0.80495334  0.40353307  0.58207553     0.10500
C3083       C  0.74376815  0.46392016  0.56255903     0.63400
H3084       H  0.76594956  0.48427450  0.60316220     0.07800
F3085       F  0.76573239  0.47643251  0.70331442    -0.19600
F3086       F  0.80075164  0.47634717  0.72533507    -0.15800
F3087       F  0.78781758  0.44107320  0.70700274    -0.19300
F3088       F  0.80638041  0.51493144  0.60089176    -0.22700
F3089       F  0.83366998  0.48455126  0.59161437    -0.24200
F3090       F  0.84639593  0.51871535  0.61177368    -0.18200
F3091       F  0.73649682  0.48707525  0.57129365    -0.20700
F3092       F  0.72338513  0.44825483  0.56414406    -0.21800
F3093       F  0.75082678  0.46683154  0.53794563    -0.19000
F3094       F  0.83411426  0.40086836  0.61397056    -0.19100
F3095       F  0.81441443  0.41682866  0.64702667    -0.22900
F3096       F  0.84391058  0.43909605  0.62714278    -0.24500
C3097       C  0.79892206  0.52879786  0.85027617    -0.11300
C3098       C  0.80708938  0.55093917  0.86125272     0.11200
C3099       C  0.82884852  0.56291054  0.85219411    -0.03200
C3100       C  0.84051078  0.55310932  0.83111709    -0.05900
C3101       C  0.83298565  0.53046079  0.82055059    -0.16700
C3102       C  0.81202939  0.51771227  0.83056168     0.02300
C3103       C  0.79266598  0.56053402  0.88249099     0.12200
C3104       C  0.84136515  0.58524715  0.86422168     0.62800
H3105       H  0.85670856  0.56266523  0.82366789     0.12200
C3106       C  0.80423604  0.49199574  0.82175897     0.55000
H3107       H  0.78243847  0.51991225  0.85783884     0.08000
C3108       C  0.78063138  0.58396807  0.88182280    -0.05800
C3109       C  0.77315805  0.59437560  0.90433615    -0.06500
C3110       C  0.77537062  0.58134037  0.92692859    -0.16100
C3111       C  0.78273867  0.55607131  0.92682280    -0.01700
C3112       C  0.79235061  0.54630344  0.90452151    -0.09200
C3113       C  0.77584829  0.59911490  0.85840251     0.65000
H3114       H  0.76561575  0.61314692  0.90422984     0.10500
C3115       C  0.78046337  0.53966647  0.94974162     0.63400
H3116       H  0.80036962  0.52776900  0.90424801     0.07800
F3117       F  0.78500196  0.48230695  0.83601718    -0.19600
F3118       F  0.82417372  0.47572068  0.82352120    -0.15800
F3119       F  0.79616088  0.49322565  0.79739383    -0.19300
F3120       F  0.83134237  0.59164620  0.88701005    -0.22700
F3121       F  0.83970100  0.60556576  0.84840194    -0.24200
F3122       F  0.86627516  0.57985244  0.86803098    -0.18200
F3123       F  0.75577293  0.53848363  0.95704640    -0.20700
F3124       F  0.79443765  0.54923286  0.96896585    -0.21800
F3125       F  0.78852203  0.51558822  0.94514224    -0.19000
F3126       F  0.78910695  0.62114993  0.85949940    -0.19100
F3127       F  0.75074158  0.60478393  0.85706661    -0.22900
F3128       F  0.78231143  0.58668276  0.83685949    -0.24500
C3129       C  0.95824715  0.52022702  0.64126577    -0.11300
C3130       C  0.94453253  0.51315212  0.62035610     0.11200
C3131       C  0.92029888  0.50352641  0.62361448    -0.03200
C3132       C  0.90952757  0.50395722  0.64746447    -0.05900
C3133       C  0.92291944  0.51134615  0.66862661    -0.16700
C3134       C  0.94837204  0.51847083  0.66557001     0.02300
C3135       C  0.95710599  0.51253564  0.59569640     0.12200
C3136       C  0.90674260  0.49098363  0.60235442     0.62800
H3137       H  0.89080368  0.49703694  0.64999372     0.12200
C3138       C  0.96659198  0.52382707  0.68636670     0.55000
H3139       H  0.97736963  0.52618829  0.63861864     0.08000
C3140       C  0.95345595  0.53114021  0.57739378    -0.05800
C3141       C  0.96307412  0.52708541  0.55330320    -0.06500
C3142       C  0.97812756  0.50631735  0.54771142    -0.16100
C3143       C  0.98340584  0.48877771  0.56694037    -0.01700
C3144       C  0.97224164  0.49199449  0.59036027    -0.09200
C3145       C  0.94071800  0.55565936  0.58371392     0.65000
H3146       H  0.95906846  0.54035839  0.53875435     0.10500
C3147       C  0.00067679  0.46643360  0.56447425     0.63400
H3148       H  0.97536538  0.47818615  0.60481304     0.07800
F3149       F  0.97553861  0.54786166  0.68383257    -0.19600
F3150       F  0.98644576  0.50747534  0.68451378    -0.15800
F3151       F  0.95662326  0.52124685  0.70979033    -0.19300
F3152       F  0.88400678  0.48143949  0.60984383    -0.22700
F3153       F  0.92106574  0.47146687  0.59358760    -0.24200
F3154       F  0.90261450  0.50762117  0.58315840    -0.18200
F3155       F  0.01911551  0.46802033  0.58230404    -0.20700
F3156       F  0.01220831  0.46459777  0.54163012    -0.21800
F3157       F  0.98723600  0.44483018  0.56856183    -0.19000
F3158       F  0.93945732  0.57137414  0.56329193    -0.19100
F3159       F  0.95402771  0.56758336  0.60210684    -0.22900
F3160       F  0.91677936  0.55175525  0.59226584    -0.24500
C3161       C  0.97159986  0.50713316  0.91135971    -0.11300
C3162       C  0.95704470  0.48674556  0.90446054     0.11200
C3163       C  0.95353030  0.46705295  0.92166240    -0.03200
C3164       C  0.96200827  0.47002477  0.94634611    -0.05900
C3165       C  0.97556609  0.49119092  0.95389108    -0.16700
C3166       C  0.98189809  0.50920898  0.93529944     0.02300
C3167       C  0.94511979  0.48706548  0.87935826     0.12200
C3168       C  0.94198009  0.44262234  0.91349860     0.62800
H3169       H  0.95899657  0.45522526  0.95964825     0.12200
C3170       C  0.00053642  0.53014284  0.93855914     0.55000
H3171       H  0.97534044  0.52150725  0.89760927     0.08000
C3172       C  0.92097639  0.49699572  0.87597430    -0.05800
C3173       C  0.91011434  0.49616669  0.85221693    -0.06500
C3174       C  0.92332418  0.48782974  0.83116764    -0.16100
C3175       C  0.94857834  0.48031376  0.83415975    -0.01700
C3176       C  0.95875224  0.47927941  0.85843589    -0.09200
C3177       C  0.90745004  0.50983642  0.89717554     0.65000
H3178       H  0.89131441  0.50305679  0.84973918     0.10500
C3179       C  0.96472843  0.47328772  0.81211979     0.63400
H3180       H  0.97764724  0.47283410  0.86129535     0.07800
F3181       F  0.98890151  0.55279860  0.93452798    -0.19600
F3182       F  0.01940669  0.52742734  0.92117981    -0.15800
F3183       F  0.01139486  0.53049781  0.96164690    -0.19300
F3184       F  0.95599109  0.43262402  0.89432398    -0.22700
F3185       F  0.91796192  0.44647527  0.90521101    -0.24200
F3186       F  0.94121457  0.42535884  0.93268484    -0.18200
F3187       F  0.96720595  0.49343954  0.79621598    -0.20700
F3188       F  0.95397815  0.45376552  0.79963406    -0.21800
F3189       F  0.98836110  0.46592974  0.81930649    -0.19000
F3190       F  0.88486516  0.51978894  0.88972605    -0.19100
F3191       F  0.92207820  0.52910147  0.90582484    -0.22900
F3192       F  0.90301119  0.49320927  0.91635643    -0.24500
C3193       C  0.84070717  0.63107677  0.76570496    -0.11300
C3194       C  0.81475469  0.63025289  0.76766880     0.11200
C3195       C  0.80298756  0.60677808  0.77083493    -0.03200
C3196       C  0.81750473  0.58482876  0.76967448    -0.05900
C3197       C  0.84348247  0.58549446  0.76646182    -0.16700
C3198       C  0.85545360  0.60926079  0.76593241     0.02300
C3199       C  0.80044693  0.65398728  0.76375631     0.12200
C3200       C  0.77520495  0.60487762  0.77549223     0.62800
H3201       H  0.80852513  0.56680819  0.77095123     0.12200
C3202       C  0.88352906  0.61209090  0.76488370     0.55000
H3203       H  0.84931517  0.64915483  0.76325917     0.08000
C3204       C  0.79878554  0.67326016  0.78166354    -0.05800
C3205       C  0.78532574  0.69524301  0.77580728    -0.06500
C3206       C  0.77275144  0.69833733  0.75300499    -0.16100
C3207       C  0.77432795  0.67849841  0.73534738    -0.01700
C3208       C  0.78894764  0.65741517  0.74073790    -0.09200
C3209       C  0.81142126  0.67075506  0.80672050     0.65000
H3210       H  0.78454132  0.71027553  0.78913788     0.10500
C3211       C  0.76029226  0.67735329  0.71100281     0.63400
H3212       H  0.79067859  0.64278256  0.72694943     0.07800
F3213       F  0.89412076  0.60090789  0.78549543    -0.19600
F3214       F  0.89069462  0.63684731  0.76491875    -0.15800
F3215       F  0.89265522  0.60137487  0.74341453    -0.19300
F3216       F  0.76230447  0.61244970  0.75460246    -0.22700
F3217       F  0.76868610  0.61980209  0.79538900    -0.24200
F3218       F  0.76805428  0.58072230  0.78113479    -0.18200
F3219       F  0.77694580  0.67858819  0.69136778    -0.20700
F3220       F  0.74316929  0.69608156  0.70854182    -0.21800
F3221       F  0.74748308  0.65503153  0.70961321    -0.19000
F3222       F  0.80409656  0.68941333  0.82290387    -0.19100
F3223       F  0.83693165  0.67216146  0.80363172    -0.22900
F3224       F  0.80548141  0.64812080  0.81753140    -0.24500
C3225       C  0.67969210  0.18238630  0.77498404    -0.11300
C3226       C  0.69216065  0.16159990  0.76513124     0.11200
C3227       C  0.71638183  0.16522400  0.75496212    -0.03200
C3228       C  0.72635700  0.18955580  0.75391912    -0.05900
C3229       C  0.71449012  0.21013268  0.76495190    -0.16700
C3230       C  0.69106156  0.20604575  0.77674891     0.02300
C3231       C  0.67953364  0.13643048  0.76538912     0.12200
C3232       C  0.73213282  0.14354923  0.74572256     0.62800
H3233       H  0.74375501  0.19268057  0.74426333     0.12200
C3234       C  0.67753240  0.22504403  0.79246248     0.55000
H3235       H  0.66090735  0.18005967  0.78197100     0.08000
C3236       C  0.67348255  0.12315725  0.78757135    -0.05800
C3237       C  0.66295048  0.09897648  0.78589475    -0.06500
C3238       C  0.65999373  0.08686816  0.76297288    -0.16100
C3239       C  0.66673506  0.10002189  0.74084896    -0.01700
C3240       C  0.67472794  0.12500052  0.74254271    -0.09200
C3241       C  0.67935294  0.13382620  0.81291664     0.65000
H3242       H  0.65776366  0.08890694  0.80262263     0.10500
C3243       C  0.66636601  0.08786618  0.71541788     0.63400
H3244       H  0.67820577  0.13571209  0.72580293     0.07800
F3245       F  0.67487364  0.21574809  0.81636986    -0.19600
F3246       F  0.65414109  0.22932142  0.78266805    -0.15800
F3247       F  0.69000411  0.24729161  0.79400866    -0.19300
F3248       F  0.72303990  0.13477843  0.72342377    -0.22700
F3249       F  0.73201181  0.12450606  0.76314249    -0.24200
F3250       F  0.75663991  0.15053144  0.74182847    -0.18200
F3251       F  0.67400728  0.10400993  0.69674157    -0.20700
F3252       F  0.64264040  0.08017170  0.70972274    -0.21800
F3253       F  0.68240391  0.06771519  0.71535099    -0.19000
F3254       F  0.67490744  0.11679283  0.83166611    -0.19100
F3255       F  0.66480476  0.15448846  0.81770844    -0.22900
F3256       F  0.70418832  0.14034595  0.81367340    -0.24500
C3257       C  0.77061584  0.20592885  0.89511319    -0.11300
C3258       C  0.75703018  0.19452632  0.87597918     0.11200
C3259       C  0.74401123  0.17222995  0.88127963    -0.03200
C3260       C  0.74541677  0.16187172  0.90533411    -0.05900
C3261       C  0.75876152  0.17323542  0.92469165    -0.16700
C3262       C  0.77108616  0.19621658  0.91963250     0.02300
C3263       C  0.75576413  0.20669521  0.85082723     0.12200
C3264       C  0.72887370  0.15918822  0.86148068     0.62800
H3265       H  0.73611406  0.14437285  0.90919121     0.12200
C3266       C  0.78534469  0.21120698  0.93866938     0.55000
H3267       H  0.78062992  0.22297884  0.89094150     0.08000
C3268       C  0.73972735  0.22711661  0.84605963    -0.05800
C3269       C  0.73827050  0.23672421  0.82168274    -0.06500
C3270       C  0.75196446  0.22662419  0.80174690    -0.16100
C3271       C  0.76831220  0.20635970  0.80659231    -0.01700
C3272       C  0.76996547  0.19687508  0.83111122    -0.09200
C3273       C  0.72408440  0.23869566  0.86662151     0.65000
H3274       H  0.72698372  0.25302335  0.81814176     0.10500
C3275       C  0.78426639  0.19385095  0.78695900     0.63400
H3276       H  0.78236641  0.18136494  0.83488528     0.07800
F3277       F  0.77722451  0.23568859  0.93809351    -0.19600
F3278       F  0.81041868  0.21072581  0.93275716    -0.15800
F3279       F  0.78218933  0.20256372  0.96260469    -0.19300
F3280       F  0.74464067  0.15020245  0.84320325    -0.22700
F3281       F  0.71206302  0.17565807  0.85099133    -0.24200
F3282       F  0.71553143  0.13934996  0.87118878    -0.18200
F3283       F  0.80893528  0.19491147  0.79395073    -0.20700
F3284       F  0.78230494  0.20472057  0.76376347    -0.21800
F3285       F  0.77735245  0.16911805  0.78514405    -0.19000
F3286       F  0.70894466  0.25762663  0.85775262    -0.19100
F3287       F  0.73940042  0.24867837  0.88460905    -0.22900
F3288       F  0.70898121  0.22078689  0.87738869    -0.24500
C3289       C  0.65344108  0.25812962  0.72293630    -0.11300
C3290       C  0.65181442  0.24030852  0.70410289     0.11200
C3291       C  0.67340413  0.22675693  0.69712788    -0.03200
C3292       C  0.69569512  0.23073106  0.71041338    -0.05900
C3293       C  0.69724072  0.24854834  0.72949475    -0.16700
C3294       C  0.67569063  0.26279308  0.73562389     0.02300
C3295       C  0.62758649  0.23853699  0.69080620     0.12200
C3296       C  0.67302652  0.20878106  0.67540114     0.62800
H3297       H  0.71225338  0.22014373  0.70582228     0.12200
C3298       C  0.67451703  0.28333578  0.75497233     0.55000
H3299       H  0.63696492  0.26890664  0.72759065     0.08000
C3300       C  0.60958609  0.21966251  0.69525240    -0.05800
C3301       C  0.58677255  0.22060919  0.68225071    -0.06500
C3302       C  0.58065210  0.24071071  0.66663820    -0.16100
C3303       C  0.59776801  0.26080255  0.66430884    -0.01700
C3304       C  0.62123637  0.25878200  0.67561009    -0.09200
C3305       C  0.61277009  0.19881057  0.71407223     0.65000
H3306       H  0.57329490  0.20583552  0.68492538     0.10500
C3307       C  0.59176757  0.28456323  0.65018196     0.63400
H3308       H  0.63484260  0.27349102  0.67311064     0.07800
F3309       F  0.65575109  0.27825569  0.77190784    -0.19600
F3310       F  0.66884131  0.30558776  0.74331273    -0.15800
F3311       F  0.69632622  0.28630192  0.76801944    -0.19300
F3312       F  0.66529350  0.22112161  0.65415412    -0.22700
F3313       F  0.65687450  0.18938081  0.68033299    -0.24200
F3314       F  0.69633946  0.19872529  0.67077639    -0.18200
F3315       F  0.60775575  0.30374374  0.65648782    -0.20700
F3316       F  0.56785405  0.29250351  0.65559127    -0.21800
F3317       F  0.59431333  0.28037597  0.62502919    -0.19000
F3318       F  0.61115863  0.17621645  0.70197505    -0.19100
F3319       F  0.59385477  0.20034448  0.73150351    -0.22900
F3320       F  0.63514768  0.19955804  0.72664074    -0.24500
C3321       C  0.75939115  0.31687115  0.62299803    -0.11300
C3322       C  0.73634671  0.31006850  0.63331219     0.11200
C3323       C  0.71447379  0.31520749  0.61946175    -0.03200
C3324       C  0.71641797  0.32837498  0.59661203    -0.05900
C3325       C  0.73949165  0.33534159  0.58625864    -0.16700
C3326       C  0.76148015  0.32864669  0.59948402     0.02300
C3327       C  0.73593954  0.29970287  0.65938670     0.12200
C3328       C  0.68873012  0.30669095  0.62745182     0.62800
H3329       H  0.69965154  0.33283040  0.58658016     0.12200
C3330       C  0.78721466  0.33481937  0.58957372     0.55000
H3331       H  0.77592618  0.31313722  0.63384767     0.08000
C3332       C  0.74295348  0.27491509  0.66520901    -0.05800
C3333       C  0.74286538  0.26705668  0.69039230    -0.06500
C3334       C  0.73578000  0.28288714  0.71014964    -0.16100
C3335       C  0.72852412  0.30778858  0.70400036    -0.01700
C3336       C  0.72866655  0.31550487  0.67882192    -0.09200
C3337       C  0.74979548  0.25665393  0.64478001     0.65000
H3338       H  0.74864435  0.24825409  0.69496351     0.10500
C3339       C  0.72104185  0.32760967  0.72249625     0.63400
H3340       H  0.72334080  0.33447681  0.67422548     0.07800
F3341       F  0.80588253  0.32569829  0.60480530    -0.19600
F3342       F  0.78987404  0.36027989  0.58826805    -0.15800
F3343       F  0.79058392  0.32458666  0.56624053    -0.19300
F3344       F  0.67363650  0.32727704  0.63080654    -0.22700
F3345       F  0.68849752  0.29296019  0.64923788    -0.24200
F3346       F  0.67895140  0.29184734  0.60894237    -0.18200
F3347       F  0.73714376  0.34753115  0.72020666    -0.20700
F3348       F  0.72147430  0.31950787  0.74676467    -0.21800
F3349       F  0.69727838  0.33588860  0.71709331    -0.19000
F3350       F  0.75532169  0.23325613  0.65420182    -0.19100
F3351       F  0.77042122  0.26504775  0.63181317    -0.22900
F3352       F  0.73003407  0.25431081  0.62853271    -0.24500
C3353       C  0.78463356  0.34210557  0.76712084    -0.11300
C3354       C  0.79362830  0.35009336  0.74391618     0.11200
C3355       C  0.79244041  0.33319990  0.72354693    -0.03200
C3356       C  0.78321007  0.30891966  0.72766030    -0.05900
C3357       C  0.77175281  0.30189352  0.75018851    -0.16700
C3358       C  0.77189773  0.31939401  0.77017732     0.02300
C3359       C  0.80593071  0.37521016  0.74233147     0.12200
C3360       C  0.79989705  0.33984212  0.69700612     0.62800
H3361       H  0.78366282  0.29572790  0.71246941     0.12200
C3362       C  0.75784334  0.31650368  0.79463347     0.55000
H3363       H  0.78615626  0.35458174  0.78286203     0.08000
C3364       C  0.79497063  0.39783393  0.75093289    -0.05800
C3365       C  0.80944505  0.41978645  0.75105593    -0.06500
C3366       C  0.83323806  0.42087525  0.74008822    -0.16100
C3367       C  0.84344177  0.39839255  0.72991458    -0.01700
C3368       C  0.83028982  0.37596646  0.73304785    -0.09200
C3369       C  0.76826820  0.40009401  0.76006800     0.65000
H3370       H  0.80153659  0.43659539  0.75896625     0.10500
C3371       C  0.86792440  0.39729460  0.71550414     0.63400
H3372       H  0.83880467  0.35853137  0.72755238     0.07800
F3373       F  0.74333957  0.33748283  0.79854891    -0.19600
F3374       F  0.77471142  0.31461163  0.81391482    -0.15800
F3375       F  0.74210277  0.29624933  0.79535392    -0.19300
F3376       F  0.82256555  0.32888468  0.69150488    -0.22700
F3377       F  0.80148217  0.36523534  0.69292799    -0.24200
F3378       F  0.78232344  0.33086068  0.68062647    -0.18200
F3379       F  0.87200444  0.37412255  0.70496013    -0.20700
F3380       F  0.88767877  0.40203206  0.73118163    -0.21800
F3381       F  0.86754398  0.41446505  0.69622867    -0.19000
F3382       F  0.75764875  0.42171453  0.75077134    -0.19100
F3383       F  0.76805588  0.40119682  0.78575963    -0.22900
F3384       F  0.75350689  0.38055473  0.75249982    -0.24500
C3385       C  0.55281887  0.85857463  0.81587922    -0.11300
C3386       C  0.53896545  0.86495937  0.79495588     0.11200
C3387       C  0.51875233  0.85006589  0.78750129    -0.03200
C3388       C  0.51277157  0.82891946  0.80190107    -0.05900
C3389       C  0.52588374  0.82300170  0.82382669    -0.16700
C3390       C  0.54657671  0.83829227  0.83102417     0.02300
C3391       C  0.54726507  0.88746013  0.78153797     0.12200
C3392       C  0.50309655  0.85723187  0.76517183     0.62800
H3393       H  0.49706740  0.81749262  0.79665048     0.12200
C3394       C  0.56157673  0.83512138  0.85507000     0.55000
H3395       H  0.56825474  0.87056898  0.82074623     0.08000
C3396       C  0.54467999  0.91145457  0.79224444    -0.05800
C3397       C  0.56103183  0.93038443  0.78469107    -0.06500
C3398       C  0.57953411  0.92595154  0.76687281    -0.16100
C3399       C  0.58068583  0.90265371  0.75462086    -0.01700
C3400       C  0.56443668  0.88367375  0.76227471    -0.09200
C3401       C  0.52582415  0.91773099  0.81235784     0.65000
H3402       H  0.55976944  0.94858031  0.79330916     0.10500
C3403       C  0.59969319  0.89746057  0.73437585     0.63400
H3404       H  0.56646481  0.86506440  0.75475791     0.07800
F3405       F  0.58226584  0.85049365  0.85560398    -0.19600
F3406       F  0.57025960  0.81108034  0.85788856    -0.15800
F3407       F  0.54690783  0.84123687  0.87529171    -0.19300
F3408       F  0.51775802  0.85779848  0.74399267    -0.22700
F3409       F  0.49281720  0.88058270  0.76889122    -0.24200
F3410       F  0.48388631  0.84053027  0.76129969    -0.18200
F3411       F  0.62329899  0.89796206  0.74444456    -0.20700
F3412       F  0.59779088  0.91526096  0.71581149    -0.21800
F3413       F  0.59621190  0.87431462  0.72362631    -0.19000
F3414       F  0.51199638  0.93819907  0.80494496    -0.19100
F3415       F  0.53820883  0.92359395  0.83404008    -0.22900
F3416       F  0.50946106  0.89846270  0.81727453    -0.24500
C3417       C  0.61471507  0.70273460  0.91668098    -0.11300
C3418       C  0.61527339  0.70824986  0.94192583     0.11200
C3419       C  0.59609457  0.72252551  0.95275033    -0.03200
C3420       C  0.57571716  0.72945878  0.93783059    -0.05900
C3421       C  0.57380583  0.72195998  0.91273042    -0.16700
C3422       C  0.59420216  0.70868362  0.90185477     0.02300
C3423       C  0.63557634  0.69684989  0.95642225     0.12200
C3424       C  0.59732850  0.73024640  0.97984273     0.62800
H3425       H  0.56092713  0.74052635  0.94592833     0.12200
C3426       C  0.59496365  0.70055485  0.87490126     0.55000
H3427       H  0.63024013  0.69238142  0.90902550     0.08000
C3428       C  0.63500090  0.67115691  0.96227359    -0.05800
C3429       C  0.65620593  0.66037560  0.97268730    -0.06500
C3430       C  0.67815475  0.67404712  0.97653935    -0.16100
C3431       C  0.67843892  0.70001123  0.97162165    -0.01700
C3432       C  0.65695006  0.71098897  0.96134158    -0.09200
C3433       C  0.61248907  0.65487569  0.95664525     0.65000
H3434       H  0.65605265  0.64067042  0.97711601     0.10500
C3435       C  0.70130427  0.71585462  0.97630013     0.63400
H3436       H  0.65691319  0.73051664  0.95618997     0.07800
F3437       F  0.57575678  0.68403728  0.87052251    -0.19600
F3438       F  0.61696665  0.68858233  0.86864395    -0.15800
F3439       F  0.59306870  0.72129468  0.85980110    -0.19300
F3440       F  0.61812407  0.74490665  0.98356895    -0.22700
F3441       F  0.59887059  0.70936367  0.99490895    -0.24200
F3442       F  0.57656910  0.74380219  0.98697122    -0.18200
F3443       F  0.69774930  0.74034904  0.96893456    -0.20700
F3444       F  0.72135004  0.70650487  0.96313836    -0.21800
F3445       F  0.70675425  0.71582350  0.00142065    -0.19000
F3446       F  0.61543818  0.63082188  0.96555043    -0.19100
F3447       F  0.60894985  0.65328163  0.93125752    -0.22900
F3448       F  0.59139507  0.66487094  0.96755181    -0.24500
C3449       C  0.44093981  0.64066720  0.82123062    -0.11300
C3450       C  0.45541694  0.63533207  0.80027343     0.11200
C3451       C  0.47337211  0.65250316  0.79171353    -0.03200
C3452       C  0.47759934  0.67396847  0.80587527    -0.05900
C3453       C  0.46391340  0.67895252  0.82773441    -0.16700
C3454       C  0.44439633  0.66248915  0.83496791     0.02300
C3455       C  0.44905889  0.61256715  0.78661965     0.12200
C3456       C  0.48794503  0.64809363  0.76786673     0.62800
H3457       H  0.49205981  0.68678877  0.80009158     0.12200
C3458       C  0.42701517  0.66740592  0.85680598     0.55000
H3459       H  0.42674236  0.62738614  0.82672388     0.08000
C3460       C  0.45454498  0.58830899  0.79564771    -0.05800
C3461       C  0.44154284  0.56800385  0.78558611    -0.06500
C3462       C  0.42325616  0.57157902  0.76738935    -0.16100
C3463       C  0.41975892  0.59556619  0.75683143    -0.01700
C3464       C  0.43261578  0.61570807  0.76686941    -0.09200
C3465       C  0.47342218  0.58287857  0.81590888     0.65000
H3466       H  0.44480271  0.54943594  0.79286972     0.10500
C3467       C  0.40160932  0.60038589  0.73595481     0.63400
H3468       H  0.42841756  0.63447973  0.76064498     0.07800
F3469       F  0.43927635  0.66289149  0.87893929    -0.19600
F3470       F  0.40619319  0.65222041  0.85613499    -0.15800
F3471       F  0.41864857  0.69172672  0.85619178    -0.19300
F3472       F  0.47206588  0.64933536  0.74771922    -0.22700
F3473       F  0.49906644  0.62484171  0.76854087    -0.24200
F3474       F  0.50643436  0.66573591  0.76439361    -0.18200
F3475       F  0.37773886  0.59809759  0.74511346    -0.20700
F3476       F  0.40568767  0.58359186  0.71691561    -0.21800
F3477       F  0.40408636  0.62414593  0.72610512    -0.19000
F3478       F  0.49209821  0.56801892  0.80619378    -0.19100
F3479       F  0.46192058  0.57026578  0.83526460    -0.22900
F3480       F  0.48437662  0.60407897  0.82540987    -0.24500
C3481       C  0.51294530  0.64146863  0.95061174    -0.11300
C3482       C  0.50986015  0.62000456  0.93578721     0.11200
C3483       C  0.50314776  0.62332410  0.91040735    -0.03200
C3484       C  0.50241881  0.64757282  0.90054251    -0.05900
C3485       C  0.50562494  0.66902873  0.91519229    -0.16700
C3486       C  0.50988780  0.66590535  0.94104148     0.02300
C3487       C  0.51186337  0.59492633  0.94824473     0.12200
C3488       C  0.49600192  0.60262165  0.89255832     0.62800
H3489       H  0.49809280  0.64971261  0.88094792     0.12200
C3490       C  0.51097855  0.68796783  0.95853282     0.55000
H3491       H  0.51730090  0.63886172  0.97010080     0.08000
C3492       C  0.52801718  0.57536797  0.94043046    -0.05800
C3493       C  0.52515851  0.55140931  0.95110714    -0.06500
C3494       C  0.50951996  0.54711478  0.97174203    -0.16100
C3495       C  0.49596766  0.56770822  0.98161830    -0.01700
C3496       C  0.49667674  0.59072811  0.96909823    -0.09200
C3497       C  0.54877174  0.57862552  0.92145727     0.65000
H3498       H  0.53569287  0.53602703  0.94344220     0.10500
C3499       C  0.48018351  0.56701838  0.00505649     0.63400
H3500       H  0.48501007  0.60581140  0.97582193     0.07800
F3501       F  0.52915806  0.70433894  0.95070352    -0.19600
F3502       F  0.51641857  0.68079300  0.98268104    -0.15800
F3503       F  0.48820055  0.70001953  0.95884484    -0.19300
F3504       F  0.47315534  0.60820509  0.88208200    -0.22700
F3505       F  0.49401669  0.57950813  0.90360477    -0.24200
F3506       F  0.51355721  0.60125221  0.87372049    -0.18200
F3507       F  0.48985840  0.58364933  0.02207725    -0.20700
F3508       F  0.47927793  0.54390891  0.01612823    -0.21800
F3509       F  0.45609828  0.57422641  0.99946810    -0.19000
F3510       F  0.54458499  0.56321674  0.90132688    -0.19100
F3511       F  0.57108425  0.57197331  0.93231366    -0.22900
F3512       F  0.55125295  0.60282414  0.91300366    -0.24500
C3513       C  0.60576997  0.73291142  0.79981806    -0.11300
C3514       C  0.61948495  0.75515786  0.79708131     0.11200
C3515       C  0.60711365  0.77813660  0.80176551    -0.03200
C3516       C  0.58360024  0.77762391  0.81342714    -0.05900
C3517       C  0.57092619  0.75529171  0.81815363    -0.16700
C3518       C  0.58103888  0.73279975  0.80871972     0.02300
C3519       C  0.64584890  0.75325818  0.78781853     0.12200
C3520       C  0.61745524  0.80356347  0.79485138     0.62800
H3521       H  0.57460981  0.79499142  0.81799420     0.12200
C3522       C  0.56570999  0.70902954  0.80727481     0.55000
H3523       H  0.61456993  0.71548465  0.79471123     0.08000
C3524       C  0.66698930  0.76331044  0.80014380    -0.05800
C3525       C  0.69035083  0.76294300  0.78790729    -0.06500
C3526       C  0.69428842  0.74925495  0.76598314    -0.16100
C3527       C  0.67360486  0.73597014  0.75588269    -0.01700
C3528       C  0.64979964  0.73970733  0.76598940    -0.09200
C3529       C  0.66654923  0.77306207  0.82658336     0.65000
H3530       H  0.70603811  0.77220926  0.79643666     0.10500
C3531       C  0.67480236  0.71679065  0.73527814     0.63400
H3532       H  0.63397058  0.73104102  0.75701981     0.07800
F3533       F  0.57958211  0.68917767  0.79836784    -0.19600
F3534       F  0.54593362  0.71284834  0.79131639    -0.15800
F3535       F  0.55645429  0.70239714  0.83028003    -0.19300
F3536       F  0.63796989  0.80226218  0.77932757    -0.22700
F3537       F  0.62387181  0.81617895  0.81626648    -0.24200
F3538       F  0.59934688  0.81717666  0.78254173    -0.18200
F3539       F  0.66720922  0.69396972  0.74461820    -0.20700
F3540       F  0.69821783  0.71399554  0.72555742    -0.21800
F3541       F  0.65883414  0.72344584  0.71621105    -0.19000
F3542       F  0.67205541  0.79821367  0.82650292    -0.19100
F3543       F  0.68448446  0.76065433  0.84029919    -0.22900
F3544       F  0.64397591  0.76942592  0.83843842    -0.24500
C3545       C  0.49276114  0.85794814  0.95335661    -0.11300
C3546       C  0.49565420  0.87940042  0.93860002     0.11200
C3547       C  0.50020122  0.87698413  0.91284698    -0.03200
C3548       C  0.49840854  0.85322495  0.90219880    -0.05900
C3549       C  0.49548205  0.83149197  0.91675766    -0.16700
C3550       C  0.49365759  0.83381484  0.94299478     0.02300
C3551       C  0.49628127  0.90402817  0.95097571     0.12200
C3552       C  0.50922329  0.89889943  0.89716070     0.62800
H3553       H  0.50060919  0.85136194  0.88226339     0.12200
C3554       C  0.49288837  0.81127005  0.96004055     0.55000
H3555       H  0.49054138  0.86034218  0.97324123     0.08000
C3556       C  0.47571299  0.92047651  0.95098659    -0.05800
C3557       C  0.47875643  0.94436161  0.96122756    -0.06500
C3558       C  0.50045852  0.95115354  0.97413536    -0.16100
C3559       C  0.52013805  0.93332848  0.97621440    -0.01700
C3560       C  0.51798229  0.91059531  0.96357708    -0.09200
C3561       C  0.45027126  0.91225897  0.94184383     0.65000
H3562       H  0.46378760  0.95774919  0.95977341     0.10500
C3563       C  0.54335522  0.93599695  0.99210977     0.63400
H3564       H  0.53321707  0.89730447  0.96424528     0.07800
F3565       F  0.49008679  0.81796216  0.98474690    -0.19600
F3566       F  0.51484926  0.79797330  0.95784423    -0.15800
F3567       F  0.47316245  0.79618215  0.95381531    -0.19300
F3568       F  0.53170072  0.90710204  0.90643130    -0.22700
F3569       F  0.49247379  0.91841766  0.89775621    -0.24200
F3570       F  0.51280817  0.89230386  0.87253043    -0.18200
F3571       F  0.54404423  0.91664605  0.00918100    -0.20700
F3572       F  0.54454270  0.95789346  0.00527056    -0.21800
F3573       F  0.56426112  0.93441291  0.97707712    -0.19000
F3574       F  0.43261698  0.93088220  0.94462768    -0.19100
F3575       F  0.44253467  0.89179464  0.95550831    -0.22900
F3576       F  0.45114377  0.90580010  0.91702493    -0.24500
C3577       C  0.19495310  0.82423930  0.78224710    -0.11300
C3578       C  0.19656455  0.84114535  0.76228082     0.11200
C3579       C  0.20875270  0.83346076  0.74015436    -0.03200
C3580       C  0.21944292  0.80948661  0.73917269    -0.05900
C3581       C  0.21800369  0.79238363  0.75908686    -0.16700
C3582       C  0.20456480  0.79971995  0.78082121     0.02300
C3583       C  0.18469900  0.86644503  0.76452819     0.12200
C3584       C  0.21041281  0.85039849  0.71747464     0.62800
H3585       H  0.22980540  0.80403732  0.72276878     0.12200
C3586       C  0.19874015  0.78281360  0.80271109     0.55000
H3587       H  0.18567477  0.83015417  0.79916687     0.08000
C3588       C  0.15855090  0.86980892  0.76360001    -0.05800
C3589       C  0.14883355  0.89423142  0.76299397    -0.06500
C3590       C  0.16414421  0.91557971  0.76290757    -0.16100
C3591       C  0.19036891  0.91215624  0.76440921    -0.01700
C3592       C  0.20003765  0.88761609  0.76594478    -0.09200
C3593       C  0.14082779  0.84774271  0.76316517     0.65000
H3594       H  0.12886162  0.89676407  0.76200948     0.10500
C3595       C  0.20822289  0.93403105  0.76421443     0.63400
H3596       H  0.21992662  0.88466483  0.76736405     0.07800
F3597       F  0.17319660  0.78139134  0.80573501    -0.19600
F3598       F  0.20877881  0.79274955  0.82412614    -0.15800
F3599       F  0.20772136  0.75896740  0.79981960    -0.19300
F3600       F  0.22479025  0.87103173  0.72273342    -0.22700
F3601       F  0.18681814  0.85806976  0.71061538    -0.24200
F3602       F  0.22113295  0.83843732  0.69730972    -0.18200
F3603       F  0.20183897  0.95056299  0.78278161    -0.20700
F3604       F  0.20729736  0.94599729  0.74141964    -0.21800
F3605       F  0.23258384  0.92657289  0.76818072    -0.19000
F3606       F  0.14744823  0.83142626  0.74439712    -0.19100
F3607       F  0.11646581  0.85512764  0.75912566    -0.22900
F3608       F  0.14159825  0.83542376  0.78576519    -0.24500
C3609       C  0.27129693  0.65410145  0.74391708    -0.11300
C3610       C  0.29638602  0.65139523  0.73697180     0.11200
C3611       C  0.31026747  0.67354343  0.73218678    -0.03200
C3612       C  0.29791700  0.69697126  0.73223628    -0.05900
C3613       C  0.27289148  0.69962965  0.73967950    -0.16700
C3614       C  0.26022577  0.67772975  0.74780354     0.02300
C3615       C  0.30771283  0.62540434  0.73590655     0.12200
C3616       C  0.33834610  0.67289761  0.72880737     0.62800
H3617       H  0.30828115  0.71362498  0.72775276     0.12200
C3618       C  0.23638811  0.67910314  0.76302976     0.55000
H3619       H  0.26050688  0.63744387  0.74725506     0.08000
C3620       C  0.30819953  0.60869894  0.75657442    -0.05800
C3621       C  0.31880931  0.58465048  0.75363174    -0.06500
C3622       C  0.33092090  0.57702207  0.73158717    -0.16100
C3623       C  0.33132197  0.59429081  0.71126633    -0.01700
C3624       C  0.31863355  0.61733780  0.71355569    -0.09200
C3625       C  0.29866804  0.61621960  0.78216236     0.65000
H3626       H  0.31890845  0.57196901  0.76935203     0.10500
C3627       C  0.34517339  0.59055347  0.68690917     0.63400
H3628       H  0.31758983  0.62953490  0.69750598     0.07800
F3629       F  0.22998183  0.65613921  0.77297982    -0.19600
F3630       F  0.21695522  0.68702249  0.74853235    -0.15800
F3631       F  0.23940287  0.69546412  0.78260353    -0.19300
F3632       F  0.34453915  0.66375796  0.70563060    -0.22700
F3633       F  0.34896367  0.65798422  0.74695892    -0.24200
F3634       F  0.34856010  0.69645491  0.73082069    -0.18200
F3635       F  0.35463506  0.56695940  0.68384938    -0.20700
F3636       F  0.36468085  0.60730852  0.68564354    -0.21800
F3637       F  0.32926415  0.59526017  0.66730008    -0.19000
F3638       F  0.30813522  0.60087805  0.80062547    -0.19100
F3639       F  0.27302362  0.61449868  0.78298340    -0.22900
F3640       F  0.30580093  0.64033973  0.78762093    -0.24500
C3641       C  0.33923957  0.75032656  0.77598718    -0.11300
C3642       C  0.34329907  0.73223580  0.79427504     0.11200
C3643       C  0.32320929  0.71651536  0.80137987    -0.03200
C3644       C  0.29963307  0.71996855  0.79009991    -0.05900
C3645       C  0.29538075  0.73871191  0.77218940    -0.16700
C3646       C  0.31604806  0.75352959  0.76440350     0.02300
C3647       C  0.36762404  0.73317296  0.80788409     0.12200
C3648       C  0.32664378  0.69620003  0.82078222     0.62800
H3649       H  0.28417773  0.70821400  0.79546450     0.12200
C3650       C  0.31558174  0.77253872  0.74355579     0.55000
H3651       H  0.35449693  0.76256707  0.77087758     0.08000
C3652       C  0.39087662  0.72625420  0.79716476    -0.05800
C3653       C  0.41311175  0.73123213  0.81033131    -0.06500
C3654       C  0.41282859  0.74234040  0.83396040    -0.16100
C3655       C  0.38939621  0.74890770  0.84472456    -0.01700
C3656       C  0.36743858  0.74460273  0.83121014    -0.09200
C3657       C  0.39221875  0.71305631  0.77230521     0.65000
H3658       H  0.43096141  0.72599775  0.80248061     0.10500
C3659       C  0.38726511  0.76180391  0.86974199     0.63400
H3660       H  0.34964737  0.75066646  0.83858369     0.07800
F3661       F  0.33208837  0.76522484  0.72513445    -0.19600
F3662       F  0.32295366  0.79548350  0.75252705    -0.15800
F3663       F  0.29256114  0.77524367  0.73299820    -0.19300
F3664       F  0.33172194  0.70662452  0.84366721    -0.22700
F3665       F  0.34617553  0.68084632  0.81393594    -0.24200
F3666       F  0.30552431  0.68164387  0.82335063    -0.18200
F3667       F  0.36294259  0.76827269  0.87548486    -0.20700
F3668       F  0.40107779  0.78341821  0.86910237    -0.21800
F3669       F  0.39567515  0.74633144  0.88852381    -0.19000
F3670       F  0.41643408  0.70683009  0.76589474    -0.19100
F3671       F  0.38281956  0.72816974  0.75372081    -0.22900
F3672       F  0.37851826  0.69133320  0.77357252    -0.24500
C3673       C  0.19655982  0.56706151  0.38998814    -0.11300
C3674       C  0.21229599  0.54682049  0.38528955     0.11200
C3675       C  0.23334569  0.54259269  0.40023108    -0.03200
C3676       C  0.23728565  0.55835634  0.42060909    -0.05900
C3677       C  0.22162421  0.57891949  0.42555104    -0.16700
C3678       C  0.20094342  0.58361353  0.40962782     0.02300
C3679       C  0.20623062  0.53118619  0.36372577     0.12200
C3680       C  0.25208248  0.52231728  0.39392644     0.62800
H3681       H  0.25339058  0.55522642  0.43225616     0.12200
C3682       C  0.18351092  0.60579686  0.41273422     0.55000
H3683       H  0.18093461  0.56998385  0.37761123     0.08000
C3684       C  0.18734465  0.51293390  0.36512061    -0.05800
C3685       C  0.17757414  0.50380687  0.34282891    -0.06500
C3686       C  0.18492622  0.51374972  0.31984290    -0.16100
C3687       C  0.20677779  0.52845499  0.31838953    -0.01700
C3688       C  0.21671396  0.53757676  0.34065836    -0.09200
C3689       C  0.17555516  0.50526272  0.38973037     0.65000
H3690       H  0.16198715  0.49100978  0.34331137     0.10500
C3691       C  0.21983687  0.53577616  0.29443928     0.63400
H3692       H  0.23181626  0.55096010  0.33995647     0.07800
F3693       F  0.17391941  0.60621185  0.43660797    -0.19600
F3694       F  0.16356773  0.60485190  0.39650450    -0.15800
F3695       F  0.19622852  0.62769413  0.40790847    -0.19300
F3696       F  0.26328949  0.52777333  0.37136858    -0.22700
F3697       F  0.24040575  0.49946941  0.39220244    -0.24200
F3698       F  0.27053078  0.52036798  0.41174246    -0.18200
F3699       F  0.21875254  0.56133827  0.29134821    -0.20700
F3700       F  0.20982710  0.52450098  0.27377773    -0.21800
F3701       F  0.24457210  0.52869682  0.29586734    -0.19000
F3702       F  0.15983976  0.48503149  0.38696315    -0.19100
F3703       F  0.16177777  0.52486288  0.39918108    -0.22900
F3704       F  0.19368890  0.49872136  0.40669856    -0.24500
C3705       C  0.32291126  0.51500720  0.62506291    -0.11300
C3706       C  0.30632267  0.53485122  0.62781288     0.11200
C3707       C  0.29993537  0.54358386  0.65186518    -0.03200
C3708       C  0.31317478  0.53416714  0.67230909    -0.05900
C3709       C  0.33225138  0.51669367  0.66902601    -0.16700
C3710       C  0.33607073  0.50561832  0.64544410     0.02300
C3711       C  0.29785358  0.54759456  0.60507390     0.12200
C3712       C  0.27968584  0.56297219  0.65585045     0.62800
H3713       H  0.30958291  0.54121976  0.69083502     0.12200
C3714       C  0.35414808  0.48432019  0.64163909     0.55000
H3715       H  0.32648006  0.50789468  0.60654454     0.08000
C3716       C  0.31377575  0.56391760  0.59171051    -0.05800
C3717       C  0.30390616  0.57721927  0.57163135    -0.06500
C3718       C  0.27885869  0.57493570  0.56488171    -0.16100
C3719       C  0.26307923  0.55812397  0.57791546    -0.01700
C3720       C  0.27325536  0.54410318  0.59746155    -0.09200
C3721       C  0.34096781  0.56754643  0.59862842     0.65000
H3722       H  0.31561633  0.59001131  0.56125814     0.10500
C3723       C  0.23539400  0.55607846  0.57251775     0.63400
H3724       H  0.26185178  0.53089469  0.60762606     0.07800
F3725       F  0.37811662  0.49306930  0.64401742    -0.19600
F3726       F  0.35190194  0.47381743  0.61825969    -0.15800
F3727       F  0.34965225  0.46582788  0.65905755    -0.19300
F3728       F  0.25699556  0.55338088  0.64858062    -0.22700
F3729       F  0.28477785  0.58414741  0.64204584    -0.24200
F3730       F  0.27765451  0.56979308  0.68059976    -0.18200
F3731       F  0.23184429  0.54645320  0.54897680    -0.20700
F3732       F  0.22437919  0.57935550  0.57408994    -0.21800
F3733       F  0.22338732  0.54056588  0.58933279    -0.19000
F3734       F  0.35181771  0.58680005  0.58523896    -0.19100
F3735       F  0.35419932  0.54600251  0.59369963    -0.22900
F3736       F  0.34303480  0.57319465  0.62358193    -0.24500
C3737       C  0.36147046  0.68026874  0.44740357    -0.11300
C3738       C  0.36797398  0.69953831  0.46345573     0.11200
C3739       C  0.35216500  0.70623363  0.48329724    -0.03200
C3740       C  0.33029086  0.69238181  0.48704324    -0.05900
C3741       C  0.32359716  0.67278491  0.47098964    -0.16700
C3742       C  0.33924720  0.66704838  0.45026209     0.02300
C3743       C  0.38984222  0.71420491  0.45608490     0.12200
C3744       C  0.35858138  0.72777995  0.50028980     0.62800
H3745       H  0.31835132  0.69674130  0.50270495     0.12200
C3746       C  0.33267326  0.64792085  0.43047573     0.55000
H3747       H  0.37389618  0.67616308  0.43201165     0.08000
C3748       C  0.41445463  0.70554997  0.45992769    -0.05800
C3749       C  0.43353492  0.71523264  0.44488593    -0.06500
C3750       C  0.42838389  0.73237056  0.42588959    -0.16100
C3751       C  0.40409261  0.74221127  0.42324683    -0.01700
C3752       C  0.38521341  0.73313976  0.43875961    -0.09200
C3753       C  0.42140242  0.68556951  0.47869963     0.65000
H3754       H  0.45238754  0.70847660  0.44724214     0.10500
C3755       C  0.39790142  0.76149572  0.40357153     0.63400
H3756       H  0.36614052  0.73911223  0.43593195     0.07800
F3757       F  0.34831627  0.64943381  0.40997785    -0.19600
F3758       F  0.30878167  0.65206170  0.42208368    -0.15800
F3759       F  0.33466821  0.62405269  0.44003765    -0.19300
F3760       F  0.35981125  0.74963210  0.48663785    -0.22700
F3761       F  0.38138971  0.72348692  0.51136578    -0.24200
F3762       F  0.34097461  0.73090372  0.51889793    -0.18200
F3763       F  0.40088445  0.75114936  0.38025829    -0.20700
F3764       F  0.41349032  0.78180182  0.40611134    -0.21800
F3765       F  0.37357533  0.76987487  0.40553925    -0.19000
F3766       F  0.43964210  0.69472845  0.49428184    -0.19100
F3767       F  0.43067535  0.66500607  0.46627837    -0.22900
F3768       F  0.40156558  0.67799856  0.49330649    -0.24500
C3769       C  0.35465291  0.54330858  0.50949387    -0.11300
C3770       C  0.37692960  0.55717833  0.50993877     0.11200
C3771       C  0.37561906  0.58350381  0.50796141    -0.03200
C3772       C  0.35210680  0.59484936  0.50715284    -0.05900
C3773       C  0.32978758  0.58113245  0.50577405    -0.16700
C3774       C  0.33109407  0.55470061  0.50656843     0.02300
C3775       C  0.40093305  0.54315501  0.50924977     0.12200
C3776       C  0.39795066  0.60084906  0.50590416     0.62800
H3777       H  0.35141366  0.61502963  0.50615488     0.12200
C3778       C  0.30816327  0.53841331  0.50379782     0.55000
H3779       H  0.35605685  0.52318737  0.51041383     0.08000
C3780       C  0.41981060  0.54443438  0.52765114    -0.05800
C3781       C  0.44320943  0.53334011  0.52274529    -0.06500
C3782       C  0.44735443  0.51857881  0.50154073    -0.16100
C3783       C  0.42680929  0.51455788  0.48508030    -0.01700
C3784       C  0.40471960  0.52786653  0.48867499    -0.09200
C3785       C  0.41610267  0.55636336  0.55287063     0.65000
H3786       H  0.45813111  0.53550355  0.53608884     0.10500
C3787       C  0.42605473  0.49611165  0.46381934     0.63400
H3788       H  0.38984718  0.52596510  0.47519439     0.07800
F3789       F  0.29054185  0.54466724  0.52144792    -0.19600
F3790       F  0.31367062  0.51336747  0.50680341    -0.15800
F3791       F  0.29821381  0.54157274  0.48030329    -0.19300
F3792       F  0.39474797  0.61668658  0.48578267    -0.22700
F3793       F  0.42034877  0.58871076  0.50251312    -0.24200
F3794       F  0.39943113  0.61502871  0.52727630    -0.18200
F3795       F  0.44786117  0.48325171  0.46135846    -0.20700
F3796       F  0.42104450  0.50830691  0.44167079    -0.21800
F3797       F  0.40719604  0.47904850  0.46803848    -0.19000
F3798       F  0.43332555  0.57520960  0.55602645    -0.19100
F3799       F  0.41969866  0.53841601  0.57097948    -0.22900
F3800       F  0.39254877  0.56614078  0.55622289    -0.24500
C3801       C  0.14104517  0.54992598  0.47753351    -0.11300
C3802       C  0.12029753  0.56124109  0.48880085     0.11200
C3803       C  0.12403738  0.58300893  0.50322155    -0.03200
C3804       C  0.14749078  0.59462132  0.50244104    -0.05900
C3805       C  0.16830991  0.58341216  0.49106935    -0.16700
C3806       C  0.16527082  0.55964454  0.47977530     0.02300
C3807       C  0.09577941  0.54831840  0.48681354     0.12200
C3808       C  0.10460041  0.59431958  0.52043067     0.62800
H3809       H  0.14987334  0.61220075  0.51203979     0.12200
C3810       C  0.18604225  0.54316350  0.46994299     0.55000
H3811       H  0.13840051  0.53256856  0.46759211     0.08000
C3812       C  0.07398967  0.55917282  0.47638421    -0.05800
C3813       C  0.05109006  0.54663731  0.47918104    -0.06500
C3814       C  0.04953239  0.52300761  0.49035212    -0.16100
C3815       C  0.07191953  0.51099474  0.49808759    -0.01700
C3816       C  0.09440413  0.52413970  0.49655116    -0.09200
C3817       C  0.07364561  0.58355513  0.46204245     0.65000
H3818       H  0.03417846  0.55540715  0.47251736     0.10500
C3819       C  0.07387063  0.48466552  0.50839191     0.63400
H3820       H  0.11122489  0.51550536  0.50367710     0.07800
F3821       F  0.18439303  0.51998745  0.48120459    -0.19600
F3822       F  0.20952859  0.55213175  0.47442226    -0.15800
F3823       F  0.18323412  0.54019753  0.44460453    -0.19300
F3824       F  0.11478248  0.59735235  0.54384590    -0.22700
F3825       F  0.08358959  0.57981773  0.52318429    -0.24200
F3826       F  0.09756684  0.61734870  0.51133835    -0.18200
F3827       F  0.08873309  0.47060875  0.49270819    -0.20700
F3828       F  0.05127682  0.47290362  0.51083016    -0.21800
F3829       F  0.08495749  0.48519389  0.53157728    -0.19000
F3830       F  0.06350829  0.57946747  0.43878559    -0.19100
F3831       F  0.09702929  0.59369456  0.45858112    -0.22900
F3832       F  0.05894147  0.60062032  0.47456381    -0.24500
C3833       C  0.25074334  0.67158262  0.62470062    -0.11300
C3834       C  0.23498990  0.69221595  0.62650819     0.11200
C3835       C  0.22460518  0.70253467  0.60451948    -0.03200
C3836       C  0.22918412  0.69060156  0.58146750    -0.05900
C3837       C  0.24405049  0.66904826  0.57989601    -0.16700
C3838       C  0.25576006  0.65997195  0.60185858     0.02300
C3839       C  0.23310523  0.70421851  0.65144212     0.12200
C3840       C  0.20897797  0.72607347  0.60548194     0.62800
H3841       H  0.22066490  0.69760786  0.56459986     0.12200
C3842       C  0.27419050  0.63858101  0.60137340     0.55000
H3843       H  0.25937725  0.66476117  0.64159828     0.08000
C3844       C  0.21757185  0.69513491  0.67081221    -0.05800
C3845       C  0.21992241  0.70540476  0.69490802    -0.06500
C3846       C  0.23856608  0.72289713  0.70066588    -0.16100
C3847       C  0.25325109  0.73257928  0.68072847    -0.01700
C3848       C  0.25029705  0.72292589  0.65665175    -0.09200
C3849       C  0.19907866  0.67428856  0.66615548     0.65000
H3850       H  0.20704806  0.69982626  0.70924431     0.10500
C3851       C  0.27230367  0.75295433  0.68446627     0.63400
H3852       H  0.26228042  0.72921125  0.64164320     0.07800
F3853       F  0.26183574  0.61671696  0.59617296    -0.19600
F3854       F  0.28613624  0.63548467  0.62396388    -0.15800
F3855       F  0.29229810  0.64320566  0.58361370    -0.19300
F3856       F  0.22338090  0.74570846  0.61366313    -0.22700
F3857       F  0.18918046  0.72282465  0.62163254    -0.24200
F3858       F  0.19952955  0.73230331  0.58235186    -0.18200
F3859       F  0.29211440  0.74339927  0.69758387    -0.20700
F3860       F  0.26182328  0.77270234  0.69714775    -0.21800
F3861       F  0.28136702  0.76217008  0.66210830    -0.19000
F3862       F  0.18508753  0.66886390  0.68717125    -0.19100
F3863       F  0.21163562  0.65288294  0.65924610    -0.22900
F3864       F  0.18292811  0.68098504  0.64733764    -0.24500
C3865       C  0.34911567  0.75844260  0.26885521    -0.11300
C3866       C  0.35079009  0.75955978  0.29487233     0.11200
C3867       C  0.32826604  0.75999553  0.30884565    -0.03200
C3868       C  0.30512309  0.75983521  0.29619082    -0.05900
C3869       C  0.30342129  0.75661789  0.27022468    -0.16700
C3870       C  0.32620788  0.75520962  0.25641388     0.02300
C3871       C  0.37630991  0.76069915  0.30670748     0.12200
C3872       C  0.32850804  0.75957916  0.33708290     0.62800
H3873       H  0.28801357  0.76126651  0.30677243     0.12200
C3874       C  0.32827949  0.74834247  0.22905112     0.55000
H3875       H  0.36624073  0.75847602  0.25809737     0.08000
C3876       C  0.39377743  0.74068456  0.30600253    -0.05800
C3877       C  0.41764994  0.74402436  0.31653145    -0.06500
C3878       C  0.42425500  0.76562243  0.32970598    -0.16100
C3879       C  0.40656089  0.78553434  0.33072203    -0.01700
C3880       C  0.38339809  0.78282306  0.31858795    -0.09200
C3881       C  0.38652386  0.71467343  0.29761633     0.65000
H3882       H  0.43066207  0.72859478  0.31662063     0.10500
C3883       C  0.41022512  0.80977688  0.34476607     0.63400
H3884       H  0.37032737  0.79822984  0.31875971     0.07800
F3885       F  0.34286787  0.72717223  0.22682066    -0.19600
F3886       F  0.33970989  0.76753607  0.21615106    -0.15800
F3887       F  0.30578761  0.74332759  0.21793750    -0.19300
F3888       F  0.30522327  0.75410532  0.34678298    -0.22700
F3889       F  0.33572335  0.78255459  0.34601667    -0.24200
F3890       F  0.34488429  0.74154612  0.34553971    -0.18200
F3891       F  0.43447518  0.81391268  0.35177111    -0.20700
F3892       F  0.39534672  0.80957058  0.36579110    -0.21800
F3893       F  0.40308799  0.82967523  0.33001515    -0.19000
F3894       F  0.37591035  0.71501017  0.27428808    -0.19100
F3895       F  0.36987983  0.70488346  0.31464975    -0.22900
F3896       F  0.40683183  0.69877940  0.29652948    -0.24500
C3897       C  0.28131274  0.83841098  0.25686853    -0.11300
C3898       C  0.29631300  0.84606212  0.23698288     0.11200
C3899       C  0.30305544  0.82862599  0.21837710    -0.03200
C3900       C  0.29344449  0.80418240  0.21987820    -0.05900
C3901       C  0.27863292  0.79638773  0.24007368    -0.16700
C3902       C  0.27240129  0.81392572  0.25896458     0.02300
C3903       C  0.30833839  0.87090380  0.23901203     0.12200
C3904       C  0.32099184  0.83562584  0.19758182     0.62800
H3905       H  0.29761289  0.79085014  0.20538647     0.12200
C3906       C  0.25676375  0.80842516  0.28198440     0.55000
H3907       H  0.27709822  0.85169865  0.27147045     0.08000
C3908       C  0.29772257  0.89328485  0.22978659    -0.05800
C3909       C  0.31128409  0.91568443  0.23208976    -0.06500
C3910       C  0.33396698  0.91644494  0.24497361    -0.16100
C3911       C  0.34270231  0.89448996  0.25695269    -0.01700
C3912       C  0.33020465  0.87195870  0.25292432    -0.09200
C3913       C  0.27189638  0.89359976  0.21862742     0.65000
H3914       H  0.30418374  0.93277824  0.22406522     0.10500
C3915       C  0.36403840  0.89491897  0.27529234     0.63400
H3916       H  0.33715734  0.85481789  0.26107400     0.07800
F3917       F  0.23726599  0.82525626  0.28324077    -0.19600
F3918       F  0.27144072  0.81128913  0.30287282    -0.15800
F3919       F  0.24669647  0.78485020  0.28258571    -0.19300
F3920       F  0.34335825  0.84342273  0.20750727    -0.22700
F3921       F  0.31109523  0.85469131  0.18337576    -0.24200
F3922       F  0.32592026  0.81567924  0.18206181    -0.18200
F3923       F  0.36673287  0.87234124  0.28755028    -0.20700
F3924       F  0.35947323  0.91288758  0.29310690    -0.21800
F3925       F  0.38604137  0.89995704  0.26299547    -0.19000
F3926       F  0.26529569  0.91708999  0.21013238    -0.19100
F3927       F  0.25474508  0.88634356  0.23647118    -0.22900
F3928       F  0.27086457  0.87732891  0.19890527    -0.24500
C3929       C  0.18483884  0.62026064  0.28163930    -0.11300
C3930       C  0.19168680  0.63034476  0.25855700     0.11200
C3931       C  0.18874578  0.61573008  0.23678255    -0.03200
C3932       C  0.18086078  0.59087005  0.23926329    -0.05900
C3933       C  0.17265338  0.58124075  0.26215102    -0.16700
C3934       C  0.17348073  0.59672470  0.28360150     0.02300
C3935       C  0.20392157  0.65522588  0.25798219     0.12200
C3936       C  0.19333811  0.62572493  0.21066813     0.62800
H3937       H  0.17922431  0.57942490  0.22275974     0.12200
C3938       C  0.16178225  0.58921227  0.30827712     0.55000
H3939       H  0.18795275  0.63127607  0.29814111     0.08000
C3940       C  0.19176273  0.67763630  0.26494840    -0.05800
C3941       C  0.20499060  0.70022642  0.26310842    -0.06500
C3942       C  0.22902804  0.70146618  0.25272035    -0.16100
C3943       C  0.24041007  0.67893502  0.24444139    -0.01700
C3944       C  0.22818030  0.65627873  0.24862405    -0.09200
C3945       C  0.16473920  0.67804901  0.27334963     0.65000
H3946       H  0.19631587  0.71718769  0.26941471     0.10500
C3947       C  0.26431757  0.67700924  0.22951122     0.63400
H3948       H  0.23720548  0.63905856  0.24307036     0.07800
F3949       F  0.16814019  0.60537611  0.32725120    -0.19600
F3950       F  0.16955890  0.56578590  0.31511587    -0.15800
F3951       F  0.13614833  0.58931976  0.30615058    -0.19300
F3952       F  0.21683230  0.61866526  0.20279500    -0.22700
F3953       F  0.19132483  0.65140943  0.20947387    -0.24200
F3954       F  0.17594596  0.61606741  0.19439221    -0.18200
F3955       F  0.28090023  0.66161595  0.24179952    -0.20700
F3956       F  0.27563765  0.69951729  0.22531107    -0.21800
F3957       F  0.25908820  0.66658127  0.20661091    -0.19000
F3958       F  0.15520563  0.70204305  0.27350778    -0.19100
F3959       F  0.16265625  0.66848800  0.29714137    -0.22900
F3960       F  0.15037550  0.66401680  0.25737958    -0.24500
C3961       C  0.28262296  0.69587580  0.32440529    -0.11300
C3962       C  0.26229243  0.70110600  0.34005855     0.11200
C3963       C  0.24276956  0.71621953  0.33088364    -0.03200
C3964       C  0.24447599  0.72570973  0.30650885    -0.05900
C3965       C  0.26429864  0.71992210  0.29029434    -0.16700
C3966       C  0.28368662  0.70429330  0.29945965     0.02300
C3967       C  0.26117026  0.68953876  0.36548029     0.12200
C3968       C  0.21991223  0.72201668  0.34658641     0.62800
H3969       H  0.23006395  0.73788146  0.29982257     0.12200
C3970       C  0.30585410  0.69563614  0.28441376     0.55000
H3971       H  0.29766382  0.68449682  0.33161216     0.08000
C3972       C  0.25496463  0.66414106  0.36897524    -0.05800
C3973       C  0.25270305  0.65478176  0.39340489    -0.06500
C3974       C  0.25665650  0.66965664  0.41465085    -0.16100
C3975       C  0.26309165  0.69512195  0.41106110    -0.01700
C3976       C  0.26538327  0.70450089  0.38647010    -0.09200
C3977       C  0.25102759  0.64682407  0.34697636     0.65000
H3978       H  0.24795087  0.63534740  0.39607632     0.10500
C3979       C  0.26858662  0.71215586  0.43276202     0.63400
H3980       H  0.27056193  0.72375375  0.38333371     0.07800
F3981       F  0.30673966  0.66987450  0.28449899    -0.19600
F3982       F  0.32720040  0.70449673  0.29526835    -0.15800
F3983       F  0.30550308  0.70369594  0.26015617    -0.19300
F3984       F  0.22661992  0.73607072  0.36697252    -0.22700
F3985       F  0.20900106  0.70008275  0.35463497    -0.24200
F3986       F  0.20223413  0.73533391  0.33335075    -0.18200
F3987       F  0.27476862  0.73599898  0.42499457    -0.20700
F3988       F  0.28841065  0.70279328  0.44600917    -0.21800
F3989       F  0.24801679  0.71389974  0.44815966    -0.19000
F3990       F  0.24256689  0.62359057  0.35441555    -0.19100
F3991       F  0.27329140  0.64348195  0.33443592    -0.22900
F3992       F  0.23366287  0.65684326  0.33083208    -0.24500
C3993       C  0.89344586  0.73922268  0.05278777    -0.11300
C3994       C  0.88220429  0.71588684  0.05527009     0.11200
C3995       C  0.89389394  0.69683867  0.06922000    -0.03200
C3996       C  0.91603991  0.70236340  0.08160452    -0.05900
C3997       C  0.92789753  0.72544311  0.07880750    -0.16700
C3998       C  0.91633317  0.74448342  0.06426863     0.02300
C3999       C  0.85882067  0.71100105  0.04196403     0.12200
C4000       C  0.88371646  0.67042773  0.06992335     0.62800
H4001       H  0.92437405  0.68846943  0.09363933     0.12200
C4002       C  0.92715935  0.77055405  0.06169357     0.55000
H4003       H  0.88406894  0.75323301  0.04167171     0.08000
C4004       C  0.83541118  0.71215122  0.05399598    -0.05800
C4005       C  0.81535086  0.69938556  0.04335584    -0.06500
C4006       C  0.81821043  0.68683566  0.02079596    -0.16100
C4007       C  0.84033420  0.68989994  0.00663765    -0.01700
C4008       C  0.86068387  0.70144817  0.01791371    -0.09200
C4009       C  0.83210373  0.72570170  0.07838973     0.65000
H4010       H  0.79780843  0.69791242  0.05319337     0.10500
C4011       C  0.84400449  0.67898544  0.98092339     0.63400
H4012       H  0.87866802  0.70146539  0.00867446     0.07800
F4013       F  0.93033938  0.78092301  0.08497691    -0.19600
F4014       F  0.91171599  0.78626152  0.04825919    -0.15800
F4015       F  0.94978530  0.76954582  0.04938402    -0.19300
F4016       F  0.88470738  0.66053991  0.04625948    -0.22700
F4017       F  0.85936831  0.67018939  0.07817042    -0.24200
F4018       F  0.89736078  0.65514950  0.08554786    -0.18200
F4019       F  0.86082967  0.69314346  0.96737075    -0.20700
F4020       F  0.82197176  0.67870367  0.96780086    -0.21800
F4021       F  0.85323746  0.65503521  0.98292182    -0.19000
F4022       F  0.80754144  0.72549106  0.08616925    -0.19100
F4023       F  0.83943079  0.75025412  0.07557802    -0.22900
F4024       F  0.84638448  0.71445405  0.09652628    -0.24500
C4025       C  0.03556518  0.65732316  0.21411533    -0.11300
C4026       C  0.04523884  0.63670065  0.20146459     0.11200
C4027       C  0.04495058  0.63578578  0.17528286    -0.03200
C4028       C  0.03721996  0.65697051  0.16238250    -0.05900
C4029       C  0.02898188  0.67855232  0.17472920    -0.16700
C4030       C  0.02660391  0.67825833  0.20111229     0.02300
C4031       C  0.05762220  0.61694825  0.21564429     0.12200
C4032       C  0.05298141  0.61258350  0.16105681     0.62800
H4033       H  0.03729204  0.65656821  0.14230533     0.12200
C4034       C  0.01419259  0.69919690  0.21555684     0.55000
H4035       H  0.03536242  0.65687778  0.23426213     0.08000
C4036       C  0.08349710  0.61802111  0.21969611    -0.05800
C4037       C  0.09546995  0.59662883  0.22814005    -0.06500
C4038       C  0.08242580  0.57436069  0.23245480    -0.16100
C4039       C  0.05606056  0.57407239  0.23090627    -0.01700
C4040       C  0.04401846  0.59567051  0.22222990    -0.09200
C4041       C  0.09841593  0.64152661  0.21463833     0.65000
H4042       H  0.11544569  0.59702182  0.23083809     0.10500
C4043       C  0.04075419  0.55129235  0.23774325     0.63400
H4044       H  0.02405945  0.59583748  0.21942061     0.07800
F4045       F  0.01524999  0.69525422  0.24100230    -0.19600
F4046       F  0.98936346  0.70057668  0.20900397    -0.15800
F4047       F  0.02566057  0.72168767  0.21048234    -0.19300
F4048       F  0.03834960  0.59259426  0.16815728    -0.22700
F4049       F  0.07762609  0.60703653  0.16593823    -0.24200
F4050       F  0.05052894  0.61563522  0.13559596    -0.18200
F4051       F  0.04305281  0.54645354  0.26291475    -0.20700
F4052       F  0.04889597  0.53088510  0.22443341    -0.21800
F4053       F  0.01572503  0.55468619  0.23262886    -0.19000
F4054       F  0.12331689  0.63861854  0.22055903    -0.19100
F4055       F  0.08889350  0.66058635  0.22894481    -0.22900
F4056       F  0.09698999  0.64810089  0.18979859    -0.24500
C4057       C  0.01628819  0.62951509  0.06453905    -0.11300
C4058       C  0.99315486  0.61876290  0.05904092     0.11200
C4059       C  0.97126462  0.63257559  0.06473400    -0.03200
C4060       C  0.97346750  0.65545834  0.07755772    -0.05900
C4061       C  0.99660037  0.66665094  0.08224069    -0.16700
C4062       C  0.01843074  0.65375249  0.07450749     0.02300
C4063       C  0.99272663  0.59290130  0.04821311     0.12200
C4064       C  0.94527481  0.62453234  0.05723221     0.62800
H4065       H  0.95669912  0.66522575  0.08318434     0.12200
C4066       C  0.04390284  0.66564282  0.07602807     0.55000
H4067       H  0.03289803  0.61876381  0.06072519     0.08000
C4068       C  0.00220259  0.58755443  0.02414019    -0.05800
C4069       C  0.00156261  0.56280326  0.01549644    -0.06500
C4070       C  0.99038959  0.54331600  0.02907009    -0.16100
C4071       C  0.97964184  0.54890767  0.05258480    -0.01700
C4072       C  0.98177662  0.57343139  0.06206961    -0.09200
C4073       C  0.01247650  0.60784633  0.00719473     0.65000
H4074       H  0.01019254  0.55838304  0.99787811     0.10500
C4075       C  0.96374753  0.53021751  0.06656052     0.63400
H4076       H  0.97382444  0.57794807  0.08004314     0.07800
F4077       F  0.06253099  0.65001495  0.06735756    -0.19600
F4078       F  0.04938819  0.67178565  0.10026383    -0.15800
F4079       F  0.04401483  0.68685600  0.06147704    -0.19300
F4080       F  0.93187805  0.61813650  0.07829685    -0.22700
F4081       F  0.94505343  0.60461288  0.04101911    -0.24200
F4082       F  0.93353465  0.64419141  0.04538324    -0.18200
F4083       F  0.95970409  0.53746043  0.09093731    -0.20700
F4084       F  0.97486048  0.50706396  0.06707428    -0.21800
F4085       F  0.94093240  0.52847454  0.05493079    -0.19000
F4086       F  0.01577861  0.59939760  0.98308712    -0.19100
F4087       F  0.03529111  0.61586154  0.01578838    -0.22900
F4088       F  0.99613886  0.62778325  0.00635207    -0.24500
C4089       C  0.89544907  0.76187099  0.20849880    -0.11300
C4090       C  0.87322423  0.75978599  0.19499855     0.11200
C4091       C  0.87448671  0.75645666  0.16893525    -0.03200
C4092       C  0.89794406  0.75431071  0.15740509    -0.05900
C4093       C  0.92037382  0.75561404  0.17082198    -0.16700
C4094       C  0.91909906  0.75951095  0.19699838     0.02300
C4095       C  0.84882475  0.75932040  0.20858815     0.12200
C4096       C  0.85110302  0.75508744  0.15324799     0.62800
H4097       H  0.89888268  0.75156013  0.13747513     0.12200
C4098       C  0.94227592  0.76128376  0.21290497     0.55000
H4099       H  0.89403170  0.76487234  0.22836016     0.08000
C4100       C  0.84085785  0.73801006  0.22203165    -0.05800
C4101       C  0.81687139  0.73797521  0.23267153    -0.06500
C4102       C  0.79977719  0.75754215  0.22892675    -0.16100
C4103       C  0.80736661  0.77821593  0.21409007    -0.01700
C4104       C  0.83223999  0.77936005  0.20562565    -0.09200
C4105       C  0.85727827  0.71503443  0.22449245     0.65000
H4106       H  0.81113135  0.72235191  0.24402551     0.10500
C4107       C  0.79018436  0.79874048  0.20508966     0.63400
H4108       H  0.83836038  0.79555663  0.19517760     0.07800
F4109       F  0.95469833  0.73874042  0.21277390    -0.19600
F4110       F  0.93667318  0.76708624  0.23737875    -0.15800
F4111       F  0.95775359  0.77966129  0.20380506    -0.19300
F4112       F  0.83965212  0.77812760  0.15240697    -0.22700
F4113       F  0.83478096  0.73790436  0.16328136    -0.24200
F4114       F  0.85639039  0.74812770  0.12910149    -0.18200
F4115       F  0.79826370  0.82132607  0.21420162    -0.20700
F4116       F  0.76566392  0.79520857  0.21197510    -0.21800
F4117       F  0.79112792  0.79982249  0.17941327    -0.19000
F4118       F  0.84516088  0.69573912  0.23663692    -0.19100
F4119       F  0.87839751  0.72067160  0.23791933    -0.22900
F4120       F  0.86413462  0.70666030  0.20113391    -0.24500
C4121       C  0.16207005  0.75590537  0.22427968    -0.11300
C4122       C  0.15633200  0.73983455  0.20468072     0.11200
C4123       C  0.17548672  0.72459878  0.19457021    -0.03200
C4124       C  0.19983241  0.72621417  0.20441252    -0.05900
C4125       C  0.20573541  0.74286508  0.22360839    -0.16700
C4126       C  0.18622601  0.75739044  0.23434867     0.02300
C4127       C  0.13100989  0.74185602  0.19312584     0.12200
C4128       C  0.17022901  0.70689308  0.17327830     0.62800
H4129       H  0.21455705  0.71457319  0.19706947     0.12200
C4130       C  0.19042666  0.77425916  0.25661466     0.55000
H4131       H  0.14739142  0.76784490  0.23129416     0.08000
C4132       C  0.10913090  0.73107861  0.20341074    -0.05800
C4133       C  0.08638366  0.73311209  0.19021518    -0.06500
C4134       C  0.08459185  0.74670292  0.16789601    -0.16100
C4135       C  0.10615902  0.75961052  0.15923377    -0.01700
C4136       C  0.12890540  0.75660760  0.17180451    -0.09200
C4137       C  0.10981857  0.71760236  0.22817365     0.65000
H4138       H  0.06992528  0.72376206  0.19705569     0.10500
C4139       C  0.10539537  0.77704060  0.13711513     0.63400
H4140       H  0.14554937  0.76579541  0.16499470     0.07800
F4141       F  0.16843149  0.78463930  0.26525695    -0.19600
F4142       F  0.20616283  0.79344403  0.25029895    -0.15800
F4143       F  0.20072054  0.76098453  0.27595706    -0.19300
F4144       F  0.16331836  0.72021714  0.15235633    -0.22700
F4145       F  0.15117982  0.69085245  0.17988219    -0.24200
F4146       F  0.19091522  0.69271685  0.16718217    -0.18200
F4147       F  0.12748134  0.78998403  0.13396213    -0.20700
F4148       F  0.08672831  0.79445103  0.14053775    -0.21800
F4149       F  0.10132382  0.76335329  0.11587143    -0.19000
F4150       F  0.08654899  0.70884084  0.23500344    -0.19100
F4151       F  0.11767938  0.73364507  0.24658303    -0.22900
F4152       F  0.12607602  0.69769754  0.22670888    -0.24500
C4153       C  0.13466881  0.81717024  0.01707662    -0.11300
C4154       C  0.13788387  0.80166179  0.03767071     0.11200
C4155       C  0.16207360  0.79631861  0.04653267    -0.03200
C4156       C  0.18219571  0.80996820  0.03667134    -0.05900
C4157       C  0.17832128  0.82831896  0.01843276    -0.16700
C4158       C  0.15461124  0.83066960  0.00715022     0.02300
C4159       C  0.11520900  0.79380990  0.05099804     0.12200
C4160       C  0.16632599  0.77669684  0.06645011     0.62800
H4161       H  0.20077244  0.80740837  0.04404251     0.12200
C4162       C  0.14992164  0.84810099  0.98551242     0.55000
H4163       H  0.11597947  0.82007559  0.01009009     0.08000
C4164       C  0.10346946  0.80984504  0.06824594    -0.05800
C4165       C  0.08141102  0.80193594  0.07967281    -0.06500
C4166       C  0.07098225  0.77847229  0.07477591    -0.16100
C4167       C  0.08284716  0.76248573  0.05723541    -0.01700
C4168       C  0.10454771  0.77085937  0.04516102    -0.09200
C4169       C  0.11453312  0.83498365  0.07498249     0.65000
H4170       H  0.07240555  0.81388804  0.09318914     0.10500
C4171       C  0.07398050  0.73613239  0.05248393     0.63400
H4172       H  0.11383837  0.75930560  0.03148735     0.07800
F4173       F  0.15106663  0.87229709  0.99385953    -0.19600
F4174       F  0.12665750  0.84448346  0.97511718    -0.15800
F4175       F  0.16750586  0.84419664  0.96707620    -0.19300
F4176       F  0.15705771  0.75406887  0.05847409    -0.22700
F4177       F  0.15431403  0.78339367  0.08819016    -0.24200
F4178       F  0.19138494  0.77361571  0.07157689    -0.18200
F4179       F  0.05024690  0.73661225  0.04259891    -0.20700
F4180       F  0.07407044  0.72296703  0.07465215    -0.21800
F4181       F  0.08922552  0.72358683  0.03586975    -0.19000
F4182       F  0.10048304  0.84725088  0.09278969    -0.19100
F4183       F  0.11590342  0.85012534  0.05418020    -0.22900
F4184       F  0.13814298  0.83158268  0.08441039    -0.24500
C4185       C  0.34507592  0.78450727  0.96661183    -0.11300
C4186       C  0.36758443  0.79499547  0.97453543     0.11200
C4187       C  0.36728719  0.81528859  0.99124698    -0.03200
C4188       C  0.34434539  0.82575870  0.99766070    -0.05900
C4189       C  0.32195827  0.81703370  0.98757340    -0.16700
C4190       C  0.32202862  0.79509618  0.97299939     0.02300
C4191       C  0.38976994  0.78948565  0.95940549     0.12200
C4192       C  0.39046017  0.82804346  0.00109112     0.62800
H4193       H  0.34415188  0.84232670  0.00916447     0.12200
C4194       C  0.29901934  0.78295993  0.96234138     0.55000
H4195       H  0.34556167  0.76915678  0.95353107     0.08000
C4196       C  0.40424700  0.76781281  0.96233318    -0.05800
C4197       C  0.42415024  0.76389610  0.94578260    -0.06500
C4198       C  0.42996637  0.78102627  0.92660388    -0.16100
C4199       C  0.41586575  0.80360195  0.92479855    -0.01700
C4200       C  0.39573732  0.80688701  0.94100698    -0.09200
C4201       C  0.39864941  0.74911364  0.98282374     0.65000
H4202       H  0.43481200  0.74682277  0.94728553     0.10500
C4203       C  0.42039719  0.82553295  0.90730554     0.63400
H4204       H  0.38438052  0.82358177  0.93941360     0.07800
F4205       F  0.29896323  0.75792074  0.96855718    -0.19600
F4206       F  0.29952373  0.78510121  0.93670832    -0.15800
F4207       F  0.27722791  0.79325588  0.97121835    -0.19300
F4208       F  0.39144041  0.85212391  0.99183695    -0.22700
F4209       F  0.41227140  0.81591079  0.99470173    -0.24200
F4210       F  0.38920442  0.82904124  0.02677853    -0.18200
F4211       F  0.40003967  0.82841702  0.89184282    -0.20700
F4212       F  0.44134135  0.82355669  0.89282798    -0.21800
F4213       F  0.42292076  0.84702399  0.92123565    -0.19000
F4214       F  0.41563343  0.72967279  0.98302992    -0.19100
F4215       F  0.37517515  0.73916688  0.97952391    -0.22900
F4216       F  0.39957890  0.76084892  0.00566820    -0.24500
C4217       C  0.28657932  0.96038554  0.09461136    -0.11300
C4218       C  0.28119845  0.94773976  0.11697285     0.11200
C4219       C  0.26626988  0.92616122  0.11642959    -0.03200
C4220       C  0.26087898  0.91550625  0.09331044    -0.05900
C4221       C  0.26894007  0.92635547  0.07087228    -0.16700
C4222       C  0.28029010  0.95010589  0.07129979     0.02300
C4223       C  0.29520361  0.95448966  0.13975337     0.12200
C4224       C  0.25691953  0.91391747  0.14013744     0.62800
H4225       H  0.25109453  0.89790880  0.09263777     0.12200
C4226       C  0.28643752  0.96395260  0.04748098     0.55000
H4227       H  0.29727544  0.97745028  0.09553210     0.08000
C4228       C  0.31979651  0.94575701  0.14317226    -0.05800
C4229       C  0.33287972  0.95327089  0.16431812    -0.06500
C4230       C  0.32227302  0.96892121  0.18249991    -0.16100
C4231       C  0.29669502  0.97565178  0.18022171    -0.01700
C4232       C  0.28378062  0.96874197  0.15843126    -0.09200
C4233       C  0.33236773  0.92870624  0.12434459     0.65000
H4234       H  0.35203654  0.94737017  0.16626637     0.10500
C4235       C  0.28281952  0.98977074  0.20043122     0.63400
H4236       H  0.26469970  0.97463485  0.15566134     0.07800
F4237       F  0.30221875  0.94983237  0.03291799    -0.19600
F4238       F  0.29790080  0.98654876  0.05213011    -0.15800
F4239       F  0.26475695  0.96859009  0.03446677    -0.19300
F4240       F  0.24270395  0.93073456  0.15350136    -0.22700
F4241       F  0.27674561  0.90612985  0.15453525    -0.24200
F4242       F  0.24217045  0.89346992  0.13505242    -0.18200
F4243       F  0.29067509  0.01428871  0.20091310    -0.20700
F4244       F  0.28703069  0.97874761  0.22334638    -0.21800
F4245       F  0.25735931  0.98968398  0.19645957    -0.19000
F4246       F  0.35593645  0.92147788  0.13184946    -0.19100
F4247       F  0.33469749  0.94090721  0.10182824    -0.22900
F4248       F  0.31835919  0.90737827  0.12111432    -0.24500
C4249       C  0.23408461  0.93309623  0.87959318    -0.11300
C4250       C  0.21890995  0.95350592  0.88514635     0.11200
C4251       C  0.21462530  0.96033007  0.91026172    -0.03200
C4252       C  0.22478049  0.94529222  0.92918960    -0.05900
C4253       C  0.23806050  0.92353400  0.92348348    -0.16700
C4254       C  0.24374245  0.91782794  0.89836276     0.02300
C4255       C  0.20308080  0.96269792  0.86469617     0.12200
C4256       C  0.19896794  0.98296307  0.91696872     0.62800
H4257       H  0.22104401  0.94946276  0.94855211     0.12200
C4258       C  0.25907716  0.89522294  0.89116405     0.55000
H4259       H  0.23655284  0.92797716  0.86025563     0.08000
C4260       C  0.21156280  0.97917559  0.84604174    -0.05800
C4261       C  0.19536960  0.98519503  0.82638580    -0.06500
C4262       C  0.17161124  0.97419838  0.82424263    -0.16100
C4263       C  0.16376386  0.95659947  0.84272163    -0.01700
C4264       C  0.17982183  0.95139806  0.86251736    -0.09200
C4265       C  0.23789142  0.98937758  0.84636820     0.65000
H4266       H  0.20150709  0.99818540  0.81219795     0.10500
C4267       C  0.13893856  0.94281446  0.84207681     0.63400
H4268       H  0.17460294  0.93785764  0.87653101     0.07800
F4269       F  0.26500687  0.89517983  0.86606775    -0.19600
F4270       F  0.24569593  0.87385180  0.89622959    -0.15800
F4271       F  0.28114497  0.89506859  0.90430929    -0.19300
F4272       F  0.17518256  0.98068715  0.90754487    -0.22700
F4273       F  0.20982631  0.00415811  0.90714456    -0.24200
F4274       F  0.19699044  0.98597068  0.94247737    -0.18200
F4275       F  0.13664178  0.93013779  0.81985202    -0.20700
F4276       F  0.11946653  0.95948743  0.84492460    -0.21800
F4277       F  0.13682424  0.92535860  0.86101355    -0.19000
F4278       F  0.24161716  0.00708923  0.82794967    -0.19100
F4279       F  0.25461835  0.97015033  0.84252476    -0.22900
F4280       F  0.24279552  0.00033026  0.86904954    -0.24500
C4281       C  0.24303123  0.80404308  0.88426112    -0.11300
C4282       C  0.26456066  0.80493176  0.86934866     0.11200
C4283       C  0.28621479  0.81640777  0.87909176    -0.03200
C4284       C  0.28517701  0.82748126  0.90292504    -0.05900
C4285       C  0.26369719  0.82649455  0.91798917    -0.16700
C4286       C  0.24227314  0.81409243  0.90857755     0.02300
C4287       C  0.26363711  0.79386924  0.84361782     0.12200
C4288       C  0.31025728  0.81788704  0.86423522     0.62800
H4289       H  0.30128729  0.83733167  0.90990181     0.12200
C4290       C  0.21829149  0.81222147  0.92357234     0.55000
H4291       H  0.22654990  0.79557316  0.87645456     0.08000
C4292       C  0.26180579  0.76785999  0.83955085    -0.05800
C4293       C  0.25900978  0.75898229  0.81502750    -0.06500
C4294       C  0.25960003  0.77477032  0.79398192    -0.16100
C4295       C  0.26413443  0.80066833  0.79811962    -0.01700
C4296       C  0.26488457  0.80973160  0.82280766    -0.09200
C4297       C  0.26315805  0.74938492  0.86096271     0.65000
H4298       H  0.25553728  0.73934789  0.81215473     0.10500
C4299       C  0.26953196  0.81967009  0.77793495     0.63400
H4300       H  0.26689478  0.82958006  0.82587459     0.07800
F4301       F  0.22245715  0.79856075  0.94502537    -0.19600
F4302       F  0.19956204  0.80046101  0.91045600    -0.15800
F4303       F  0.20991338  0.83579615  0.92974505    -0.19300
F4304       F  0.30874992  0.83732330  0.84736352    -0.22700
F4305       F  0.31464337  0.79589523  0.85157731    -0.24200
F4306       F  0.33044856  0.82201326  0.87961055    -0.18200
F4307       F  0.25189578  0.83843625  0.77875449    -0.20700
F4308       F  0.26977027  0.80961434  0.75446437    -0.21800
F4309       F  0.29266849  0.83010355  0.78213941    -0.19000
F4310       F  0.26557604  0.72512426  0.85256998    -0.19100
F4311       F  0.24178598  0.75081511  0.87526089    -0.22900
F4312       F  0.28359312  0.75457783  0.87564309    -0.24500
C4313       C  0.21372398  0.83273799  0.12311474    -0.11300
C4314       C  0.23520848  0.82150033  0.13303111     0.11200
C4315       C  0.25725036  0.82148810  0.11822018    -0.03200
C4316       C  0.25609010  0.82959598  0.09332632    -0.05900
C4317       C  0.23489986  0.84134046  0.08360490    -0.16700
C4318       C  0.21385364  0.84452966  0.09947039     0.02300
C4319       C  0.23389874  0.80718207  0.15720788     0.12200
C4320       C  0.28261450  0.81355444  0.12785110     0.62800
H4321       H  0.27268621  0.82834817  0.08183298     0.12200
C4322       C  0.19188762  0.86067080  0.09194643     0.55000
H4323       H  0.19678453  0.83229703  0.13396424     0.08000
C4324       C  0.22977810  0.81810600  0.18094728    -0.05800
C4325       C  0.23419683  0.80369638  0.20265065    -0.06500
C4326       C  0.24217185  0.77868371  0.20167066    -0.16100
C4327       C  0.24573308  0.76788911  0.17763350    -0.01700
C4328       C  0.24048462  0.78198736  0.15621600    -0.09200
C4329       C  0.22107087  0.84483931  0.18362320     0.65000
H4330       H  0.23217181  0.81228750  0.22064705     0.10500
C4331       C  0.25703342  0.74254697  0.17252862     0.63400
H4332       H  0.24350813  0.77363185  0.13808994     0.07800
F4333       F  0.17280504  0.85963361  0.10929468    -0.19600
F4334       F  0.18262127  0.85301391  0.06935368    -0.15800
F4335       F  0.19937288  0.88524501  0.09003382    -0.19300
F4336       F  0.28875779  0.79053580  0.11809842    -0.22700
F4337       F  0.28345678  0.81228066  0.15350314    -0.24200
F4338       F  0.30038669  0.83072024  0.12040367    -0.18200
F4339       F  0.24077234  0.72858626  0.15836644    -0.20700
F4340       F  0.26244987  0.72942453  0.19366349    -0.21800
F4341       F  0.27897882  0.74562163  0.15929268    -0.19000
F4342       F  0.22186859  0.85278950  0.20808482    -0.19100
F4343       F  0.19676462  0.84700077  0.17560616    -0.22900
F4344       F  0.23605077  0.86034462  0.16964788    -0.24500
C4345       C  0.41425377  0.96705749  0.99991745    -0.11300
C4346       C  0.41291368  0.94346408  0.01093522     0.11200
C4347       C  0.43519292  0.93220461  0.01965450    -0.03200
C4348       C  0.45786623  0.94572168  0.01823979    -0.05900
C4349       C  0.45912784  0.96968111  0.00749003    -0.16700
C4350       C  0.43671093  0.98040165  0.99793399     0.02300
C4351       C  0.38788209  0.93092763  0.01160738     0.12200
C4352       C  0.43506407  0.90567084  0.02940838     0.62800
H4353       H  0.47497379  0.93740859  0.02490572     0.12200
C4354       C  0.43504474  0.00508242  0.98410078     0.55000
H4355       H  0.39730738  0.97517272  0.99250664     0.08000
C4356       C  0.37205018  0.93039175  0.03288356    -0.05800
C4357       C  0.34853391  0.91855369  0.03125581    -0.06500
C4358       C  0.33914056  0.90952725  0.00861011    -0.16100
C4359       C  0.35433526  0.91183508  0.98690928    -0.01700
C4360       C  0.37857608  0.92182054  0.98905706    -0.09200
C4361       C  0.37820462  0.94307243  0.05730565     0.65000
H4362       H  0.33687239  0.91735784  0.04773138     0.10500
C4363       C  0.34546851  0.90353906  0.96145327     0.63400
H4364       H  0.39051787  0.92308385  0.97283290     0.07800
F4365       F  0.41562107  0.01910888  0.99362814    -0.19600
F4366       F  0.43033920  0.00045268  0.95926023    -0.15800
F4367       F  0.45622527  0.01929238  0.98576709    -0.19300
F4368       F  0.42683261  0.88983214  0.01095346    -0.22700
F4369       F  0.41938121  0.90373979  0.04974177    -0.24200
F4370       F  0.45856333  0.89795670  0.03663837    -0.18200
F4371       F  0.36257076  0.90908522  0.94290680    -0.20700
F4372       F  0.32341412  0.91539483  0.95545957    -0.21800
F4373       F  0.34203945  0.87810488  0.96146661    -0.19000
F4374       F  0.36041860  0.96113531  0.06203484    -0.19100
F4375       F  0.40121232  0.95453194  0.05738911    -0.22900
F4376       F  0.37774830  0.92564745  0.07630848    -0.24500
C4377       C  0.04349239  0.89493664  0.73155358    -0.11300
C4378       C  0.04823723  0.88597752  0.70748248     0.11200
C4379       C  0.06549099  0.89860221  0.69187477    -0.03200
C4380       C  0.07779478  0.91944044  0.70126245    -0.05900
C4381       C  0.07363838  0.92818185  0.72546275    -0.16700
C4382       C  0.05619326  0.91581164  0.74105346     0.02300
C4383       C  0.03448785  0.86387952  0.69869531     0.12200
C4384       C  0.07203601  0.89132542  0.66527861     0.62800
H4385       H  0.09110295  0.92903317  0.68939432     0.12200
C4386       C  0.05175360  0.92383976  0.76777724     0.55000
H4387       H  0.02992900  0.88521013  0.74293027     0.08000
C4388       C  0.04303767  0.83933087  0.70328595    -0.05800
C4389       C  0.03315104  0.81970522  0.68903860    -0.06500
C4390       C  0.01561637  0.82432783  0.67028098    -0.16100
C4391       C  0.00562524  0.84864208  0.66736126    -0.01700
C4392       C  0.01492173  0.86800013  0.68210681    -0.09200
C4393       C  0.06296937  0.83421635  0.72259727     0.65000
H4394       H  0.04000566  0.80086779  0.69149580     0.10500
C4395       C  0.98601172  0.85441166  0.64803790     0.63400
H4396       H  0.00860004  0.88697508  0.67921664     0.07800
F4397       F  0.03565714  0.90789526  0.78015497    -0.19600
F4398       F  0.04140321  0.94745218  0.76817020    -0.15800
F4399       F  0.07405478  0.92397233  0.78059233    -0.19300
F4400       F  0.06555311  0.91063571  0.64944714    -0.22700
F4401       F  0.06036889  0.87002107  0.65709163    -0.24200
F4402       F  0.09744976  0.88744410  0.66350455    -0.18200
F4403       F  0.97721010  0.87860412  0.64996620    -0.20700
F4404       F  0.96603807  0.83844716  0.65108184    -0.21800
F4405       F  0.99616932  0.85157572  0.62457542    -0.19000
F4406       F  0.06947648  0.80925252  0.72341069    -0.19100
F4407       F  0.05423426  0.84097682  0.74584332    -0.22900
F4408       F  0.08415485  0.84785122  0.71722799    -0.24500
C4409       C  0.96177169  0.60413009  0.73465444    -0.11300
C4410       C  0.95714233  0.61393421  0.71093113     0.11200
C4411       C  0.94403512  0.59963679  0.69321742    -0.03200
C4412       C  0.93248137  0.57767818  0.70117173    -0.05900
C4413       C  0.93512992  0.56884599  0.72557984    -0.16700
C4414       C  0.95139034  0.58122751  0.74219273     0.02300
C4415       C  0.96644925  0.63899695  0.70456250     0.12200
C4416       C  0.94178777  0.60768198  0.66617266     0.62800
H4417       H  0.92056234  0.56756210  0.68851166     0.12200
C4418       C  0.95724916  0.57077918  0.76779060     0.55000
H4419       H  0.97305776  0.61487843  0.74735357     0.08000
C4420       C  0.95030594  0.65977118  0.70335235    -0.05800
C4421       C  0.95792851  0.68059406  0.68942371    -0.06500
C4422       C  0.98172973  0.68158259  0.67878929    -0.16100
C4423       C  0.99966664  0.66339876  0.68558816    -0.01700
C4424       C  0.99135880  0.64157002  0.69742249    -0.09200
C4425       C  0.92594295  0.66015655  0.71770082     0.65000
H4426       H  0.94543486  0.69613848  0.68672062     0.10500
C4427       C  0.02726629  0.66713724  0.68092737     0.63400
H4428       H  0.00394067  0.62603836  0.70032413     0.07800
F4429       F  0.93569524  0.56864360  0.78176247    -0.19600
F4430       F  0.97361437  0.58585263  0.78066596    -0.15800
F4431       F  0.96818359  0.54755070  0.76531734    -0.19300
F4432       F  0.96497928  0.61363739  0.65668220    -0.22700
F4433       F  0.92645875  0.62822468  0.66429310    -0.24200
F4434       F  0.93194571  0.58893748  0.65155854    -0.18200
F4435       F  0.04132119  0.64801275  0.69107588    -0.20700
F4436       F  0.03481150  0.68920355  0.69176291    -0.21800
F4437       F  0.03217343  0.66805043  0.65581329    -0.19000
F4438       F  0.91335742  0.68248336  0.71464293    -0.19100
F4439       F  0.93106902  0.65724610  0.74271915    -0.22900
F4440       F  0.91050040  0.64106972  0.71016857    -0.24500
C4441       C  0.10882203  0.73875662  0.55067897    -0.11300
C4442       C  0.11064469  0.71367866  0.54383753     0.11200
C4443       C  0.09032593  0.69743560  0.54835984    -0.03200
C4444       C  0.07073981  0.70581733  0.56325967    -0.05900
C4445       C  0.06915621  0.73064486  0.57075456    -0.16700
C4446       C  0.08773950  0.74787239  0.56322656     0.02300
C4447       C  0.13559257  0.70343604  0.53838231     0.12200
C4448       C  0.08890818  0.67093794  0.53871654     0.62800
H4449       H  0.05666201  0.69271298  0.56922517     0.12200
C4450       C  0.08667283  0.77519369  0.57028290     0.55000
H4451       H  0.12480063  0.75072058  0.54795961     0.08000
C4452       C  0.14858965  0.70787546  0.51595143    -0.05800
C4453       C  0.17075284  0.69457112  0.51160452    -0.06500
C4454       C  0.17894726  0.67567561  0.52794625    -0.16100
C4455       C  0.16540688  0.67124243  0.55047670    -0.01700
C4456       C  0.14498814  0.68653010  0.55581125    -0.09200
C4457       C  0.13840724  0.72538909  0.49619602     0.65000
H4458       H  0.18086058  0.69765962  0.49441046     0.10500
C4459       C  0.17049056  0.64961427  0.56824851     0.63400
H4460       H  0.13449532  0.68381298  0.57285739     0.07800
F4461       F  0.10506622  0.78885108  0.55836916    -0.19600
F4462       F  0.09010344  0.77755435  0.59557649    -0.15800
F4463       F  0.06394738  0.78531991  0.56365485    -0.19300
F4464       F  0.08995773  0.65437818  0.55846669    -0.22700
F4465       F  0.10782162  0.66542670  0.52211399    -0.24200
F4466       F  0.06656390  0.66771609  0.52643232    -0.18200
F4467       F  0.19499578  0.64937382  0.57535083    -0.20700
F4468       F  0.16469332  0.62729369  0.55692109    -0.21800
F4469       F  0.15636702  0.65112887  0.58981107    -0.19000
F4470       F  0.15218443  0.72430469  0.47440838    -0.19100
F4471       F  0.13899764  0.74964319  0.50469448    -0.22900
F4472       F  0.11411402  0.71901754  0.49061585    -0.24500
C4473       C  0.88110347  0.76915621  0.55927358    -0.11300
C4474       C  0.88621102  0.78827586  0.54227841     0.11200
C4475       C  0.91123400  0.79553497  0.53774284    -0.03200
C4476       C  0.93025072  0.78435234  0.55188902    -0.05900
C4477       C  0.92472421  0.76693653  0.57055464    -0.16700
C4478       C  0.89999765  0.75826756  0.57354146     0.02300
C4479       C  0.86482812  0.80391237  0.53461761     0.12200
C4480       C  0.91774848  0.81533772  0.51852513     0.62800
H4481       H  0.94938193  0.79024080  0.54955097     0.12200
C4482       C  0.89325767  0.73864695  0.59270539     0.55000
H4483       H  0.86183999  0.76432987  0.56287830     0.08000
C4484       C  0.84714139  0.79646784  0.51677376    -0.05800
C4485       C  0.82638952  0.81195972  0.51249066    -0.06500
C4486       C  0.82291694  0.83460729  0.52534663    -0.16100
C4487       C  0.84085962  0.84174121  0.54357130    -0.01700
C4488       C  0.86106808  0.82580766  0.54810466    -0.09200
C4489       C  0.85016733  0.77232512  0.50240942     0.65000
H4490       H  0.81282939  0.80649383  0.49871551     0.10500
C4491       C  0.83950148  0.86596801  0.55824769     0.63400
H4492       H  0.87459857  0.83041436  0.56225505     0.07800
F4493       F  0.86913754  0.73009709  0.58973847    -0.19600
F4494       F  0.89513857  0.74876564  0.61618013    -0.15800
F4495       F  0.90914541  0.71846018  0.59050408    -0.19300
F4496       F  0.90693792  0.83786406  0.52469923    -0.22700
F4497       F  0.90921066  0.80806436  0.49545433    -0.24200
F4498       F  0.94321621  0.81899859  0.51676238    -0.18200
F4499       F  0.85801969  0.86751574  0.57604494    -0.20700
F4500       F  0.81691995  0.86766144  0.57053265    -0.21800
F4501       F  0.84249610  0.88608603  0.54235053    -0.19000
F4502       F  0.83232135  0.76991586  0.48405317    -0.19100
F4503       F  0.84795640  0.75223108  0.51841039    -0.22900
F4504       F  0.87331667  0.77160906  0.49111879    -0.24500
C4505       C  0.11916308  0.78670971  0.67464913    -0.11300
C4506       C  0.12947744  0.76382259  0.68214924     0.11200
C4507       C  0.11550506  0.74179177  0.67774093    -0.03200
C4508       C  0.09100125  0.74379966  0.66845785    -0.05900
C4509       C  0.08068020  0.76667163  0.66079245    -0.16700
C4510       C  0.09581251  0.78841273  0.66261798     0.02300
C4511       C  0.15425898  0.76323223  0.69540199     0.12200
C4512       C  0.12662156  0.71600446  0.68162810     0.62800
H4513       H  0.08003426  0.72704767  0.66603317     0.12200
C4514       C  0.08916102  0.81377319  0.65201843     0.55000
H4515       H  0.12948217  0.80362423  0.67816843     0.08000
C4516       C  0.17723559  0.77056481  0.68431123    -0.05800
C4517       C  0.19958810  0.76755482  0.69797277    -0.06500
C4518       C  0.20015115  0.75640199  0.72175027    -0.16100
C4519       C  0.17715365  0.74829181  0.73221906    -0.01700
C4520       C  0.15477752  0.75324633  0.71952856    -0.09200
C4521       C  0.17852372  0.78099875  0.65802429     0.65000
H4522       H  0.21696416  0.77364962  0.68989221     0.10500
C4523       C  0.17466343  0.73284504  0.75574678     0.63400
H4524       H  0.13730043  0.74802689  0.72822925     0.07800
F4525       F  0.10573804  0.81954895  0.63311507    -0.19600
F4526       F  0.09130458  0.83153481  0.67038476    -0.15800
F4527       F  0.06542999  0.81515101  0.64257237    -0.19300
F4528       F  0.12567051  0.70953991  0.70650222    -0.22700
F4529       F  0.15109028  0.71552060  0.67351728    -0.24200
F4530       F  0.11374848  0.69814477  0.66833088    -0.18200
F4531       F  0.15987126  0.74539862  0.77266646    -0.20700
F4532       F  0.19708736  0.72739690  0.76680120    -0.21800
F4533       F  0.16328933  0.71047904  0.75000694    -0.19000
F4534       F  0.16529288  0.76597285  0.64196157    -0.19100
F4535       F  0.20281190  0.78229262  0.64938898    -0.22900
F4536       F  0.16875090  0.80481190  0.65745110    -0.24500
C4537       C  0.01634201  0.64038269  0.54563018    -0.11300
C4538       C  0.01719376  0.61853995  0.56023438     0.11200
C4539       C  0.01706012  0.62132597  0.58662612    -0.03200
C4540       C  0.01613772  0.64554656  0.59691700    -0.05900
C4541       C  0.01327771  0.66721016  0.58233337    -0.16700
C4542       C  0.01232446  0.66433895  0.55599719     0.02300
C4543       C  0.01616722  0.59335500  0.54735436     0.12200
C4544       C  0.01769645  0.59922914  0.60446647     0.62800
H4545       H  0.01658885  0.64754723  0.61690128     0.12200
C4546       C  0.00559741  0.68579716  0.53868171     0.55000
H4547       H  0.01775585  0.63837791  0.52570339     0.08000
C4548       C  0.99701179  0.58689452  0.53019980    -0.05800
C4549       C  0.99734550  0.56307771  0.51910300    -0.06500
C4550       C  0.01347466  0.54402513  0.52696736    -0.16100
C4551       C  0.03181874  0.54997635  0.54491711    -0.01700
C4552       C  0.03402392  0.57492247  0.55311193    -0.09200
C4553       C  0.97546512  0.60422275  0.52385197     0.65000
H4554       H  0.98384956  0.55868982  0.50486181     0.10500
C4555       C  0.04869196  0.53088387  0.55699633     0.63400
H4556       H  0.04936310  0.57968415  0.56512325     0.07800
F4557       F  0.98141279  0.69331304  0.54346535    -0.19600
F4558       F  0.00695256  0.67894790  0.51389991    -0.15800
F4559       F  0.02141523  0.70573083  0.54200351    -0.19300
F4560       F  0.04183392  0.59062026  0.60678735    -0.22700
F4561       F  0.00256739  0.58020258  0.59619387    -0.24200
F4562       F  0.00939002  0.60580842  0.62796008    -0.18200
F4563       F  0.07318669  0.53597537  0.55090432    -0.20700
F4564       F  0.04322448  0.50683663  0.55000854    -0.21800
F4565       F  0.04597942  0.53222362  0.58255851    -0.19000
F4566       F  0.95532171  0.59103302  0.51475810    -0.19100
F4567       F  0.98271263  0.62105849  0.50573406    -0.22900
F4568       F  0.96733761  0.61688633  0.54473832    -0.24500
C4569       C  0.87594483  0.71484198  0.67677741    -0.11300
C4570       C  0.86627318  0.73694308  0.68664094     0.11200
C4571       C  0.88129431  0.75868261  0.68591600    -0.03200
C4572       C  0.90588125  0.75698563  0.67650667    -0.05900
C4573       C  0.91527358  0.73504563  0.66554030    -0.16700
C4574       C  0.89934313  0.71370625  0.66483922     0.02300
C4575       C  0.84023525  0.73670897  0.69707806     0.12200
C4576       C  0.87093944  0.78394595  0.69346511     0.62800
H4577       H  0.91746214  0.77348875  0.67614721     0.12200
C4578       C  0.90461489  0.68957700  0.65099646     0.55000
H4579       H  0.86458041  0.69820138  0.67776968     0.08000
C4580       C  0.81887210  0.73239897  0.68217156    -0.05800
C4581       C  0.79515086  0.73196926  0.69361831    -0.06500
C4582       C  0.79166537  0.73786377  0.71882820    -0.16100
C4583       C  0.81300198  0.74380165  0.73328993    -0.01700
C4584       C  0.83684497  0.74127447  0.72254640    -0.09200
C4585       C  0.82077268  0.72949141  0.65412211     0.65000
H4586       H  0.77891859  0.72755670  0.68272823     0.10500
C4587       C  0.81216362  0.75437417  0.75948556     0.63400
H4588       H  0.85310898  0.74416116  0.73404780     0.07800
F4589       F  0.89892427  0.66950600  0.66612783    -0.19600
F4590       F  0.92893294  0.68677635  0.64341596    -0.15800
F4591       F  0.88947131  0.68855541  0.63028374    -0.19300
F4592       F  0.86740904  0.78487467  0.71889920    -0.22700
F4593       F  0.84845063  0.78807929  0.68168124    -0.24200
F4594       F  0.88684404  0.80316568  0.68687538    -0.18200
F4595       F  0.82353282  0.73787927  0.77568392    -0.20700
F4596       F  0.78841076  0.75930084  0.76805290    -0.21800
F4597       F  0.82517220  0.77661446  0.75983187    -0.19000
F4598       F  0.79751281  0.72908313  0.64315439    -0.19100
F4599       F  0.83259440  0.70748477  0.64805538    -0.22900
F4600       F  0.83401631  0.74924569  0.64414729    -0.24500
C4601       C  0.90553386  0.98714958  0.49106525    -0.11300
C4602       C  0.89882710  0.96354749  0.50006384     0.11200
C4603       C  0.91593112  0.95032948  0.51511289    -0.03200
C4604       C  0.94025505  0.95977193  0.51749786    -0.05900
C4605       C  0.94847527  0.98038208  0.50333579    -0.16700
C4606       C  0.92921674  0.99710691  0.49618553     0.02300
C4607       C  0.87347316  0.95362563  0.49526417     0.12200
C4608       C  0.90869006  0.92617544  0.52810733     0.62800
H4609       H  0.95270795  0.95065456  0.53015109     0.12200
C4610       C  0.92845872  0.02295709  0.50753252     0.55000
H4611       H  0.89131418  0.99894893  0.48295431     0.08000
C4612       C  0.85267111  0.95995547  0.51018196    -0.05800
C4613       C  0.83054715  0.94620789  0.50738713    -0.06500
C4614       C  0.82841200  0.92678910  0.48990421    -0.16100
C4615       C  0.84876228  0.92207056  0.47351172    -0.01700
C4616       C  0.87096684  0.93562534  0.47664239    -0.09200
C4617       C  0.85385468  0.98099993  0.52903045     0.65000
H4618       H  0.81484833  0.95021741  0.51940575     0.10500
C4619       C  0.84739437  0.90300818  0.45272399     0.63400
H4620       H  0.88709748  0.93152805  0.46519652     0.07800
F4621       F  0.91722937  0.02141758  0.53069582    -0.19600
F4622       F  0.91468893  0.03918999  0.49304928    -0.15800
F4623       F  0.95182279  0.03276241  0.51080634    -0.19300
F4624       F  0.90309754  0.90825475  0.51059979    -0.22700
F4625       F  0.88810829  0.92987559  0.54313318    -0.24200
F4626       F  0.92769366  0.91716566  0.54293080    -0.18200
F4627       F  0.82630795  0.90717086  0.43859681    -0.20700
F4628       F  0.84679971  0.87918428  0.46259090    -0.21800
F4629       F  0.86780839  0.90445651  0.43696881    -0.19000
F4630       F  0.83179250  0.98339096  0.54222408    -0.19100
F4631       F  0.85826043  0.00328627  0.51684574    -0.22900
F4632       F  0.87275034  0.97679775  0.54591490    -0.24500
C4633       C  0.07605863  0.05468583  0.52354291    -0.11300
C4634       C  0.09447006  0.04358682  0.50857198     0.11200
C4635       C  0.08852802  0.02218433  0.49453540    -0.03200
C4636       C  0.06392168  0.01345172  0.49498290    -0.05900
C4637       C  0.04524827  0.02470033  0.50948343    -0.16700
C4638       C  0.05150624  0.04545942  0.52451608     0.02300
C4639       C  0.11937093  0.05560910  0.50691722     0.12200
C4640       C  0.10799829  0.00859964  0.47908674     0.62800
H4641       H  0.05906913  0.99732557  0.48408764     0.12200
C4642       C  0.03347428  0.05868670  0.54172112     0.55000
H4643       H  0.08090051  0.07096079  0.53440074     0.08000
C4644       C  0.12367526  0.07762843  0.49296037    -0.05800
C4645       C  0.14734656  0.08871031  0.49380776    -0.06500
C4646       C  0.16737147  0.07789244  0.50670210    -0.16100
C4647       C  0.16363701  0.05426827  0.51840499    -0.01700
C4648       C  0.13933087  0.04446073  0.51945902    -0.09200
C4649       C  0.10447226  0.09012038  0.47644345     0.65000
H4650       H  0.15039675  0.10593117  0.48360469     0.10500
C4651       C  0.18373302  0.03787607  0.52964346     0.63400
H4652       H  0.13598612  0.02740458  0.52981952     0.07800
F4653       F  0.03062442  0.08310357  0.53389080    -0.19600
F4654       F  0.04295869  0.05867050  0.56559726    -0.15800
F4655       F  0.01035802  0.04766361  0.54256319    -0.19300
F4656       F  0.12590867  0.99850622  0.49453743    -0.22700
F4657       F  0.11916899  0.02494565  0.46255126    -0.24200
F4658       F  0.09774649  0.98928835  0.46552850    -0.18200
F4659       F  0.17854249  0.03371985  0.55451570    -0.20700
F4660       F  0.20730013  0.04757926  0.52763112    -0.21800
F4661       F  0.18372562  0.01513503  0.51759518    -0.19000
F4662       F  0.11357875  0.09097376  0.45234334    -0.19100
F4663       F  0.10052092  0.11416306  0.48477865    -0.22900
F4664       F  0.08182693  0.07799505  0.47585663    -0.24500
C4665       C  0.04878091  0.98110657  0.64037198    -0.11300
C4666       C  0.06061674  0.99408338  0.62084355     0.11200
C4667       C  0.08154480  0.00918006  0.62680413    -0.03200
C4668       C  0.09240996  0.00664388  0.65050041    -0.05900
C4669       C  0.08119700  0.99268090  0.66966812    -0.16700
C4670       C  0.05757852  0.98170166  0.66502648     0.02300
C4671       C  0.04973990  0.99173460  0.59516974     0.12200
C4672       C  0.09311176  0.02840477  0.60947147     0.62800
H4673       H  0.10947671  0.01666537  0.65440868     0.12200
C4674       C  0.04016214  0.97119676  0.68468707     0.55000
H4675       H  0.03190265  0.97078695  0.63646406     0.08000
C4676       C  0.06346990  0.98386360  0.57390120    -0.05800
C4677       C  0.05174343  0.98439547  0.55043603    -0.06500
C4678       C  0.02597635  0.98870353  0.54758742    -0.16100
C4679       C  0.01180624  0.99399054  0.56936259    -0.01700
C4680       C  0.02413334  0.99650494  0.59237274    -0.09200
C4681       C  0.09031345  0.97462917  0.57453812     0.65000
H4682       H  0.06311817  0.98105273  0.53422196     0.10500
C4683       C  0.98363177  0.99644916  0.56874482     0.63400
H4684       H  0.01361229  0.00182077  0.60873584     0.07800
F4685       F  0.04901497  0.97354382  0.70853439    -0.19600
F4686       F  0.03572568  0.94630696  0.67996469    -0.15800
F4687       F  0.01771296  0.98382673  0.68352172    -0.19300
F4688       F  0.08053368  0.03105699  0.58729366    -0.22700
F4689       F  0.11753320  0.02188624  0.60439112    -0.24200
F4690       F  0.09298117  0.05136208  0.62111553    -0.18200
F4691       F  0.97630509  0.01336937  0.55082550    -0.20700
F4692       F  0.97398609  0.00436221  0.59130298    -0.21800
F4693       F  0.97343861  0.97346725  0.56360425    -0.19000
F4694       F  0.09170605  0.95127063  0.56399827    -0.19100
F4695       F  0.09993137  0.97236210  0.59818149    -0.22900
F4696       F  0.10521085  0.99066356  0.56087391    -0.24500
C4697       C  0.01821239  0.07617588  0.44414718    -0.11300
C4698       C  0.00533787  0.09525611  0.45656129     0.11200
C4699       C  0.99251469  0.08955444  0.47889312    -0.03200
C4700       C  0.99436040  0.06523901  0.48872613    -0.05900
C4701       C  0.00672025  0.04582187  0.47615253    -0.16700
C4702       C  0.01892488  0.05149092  0.45330530     0.02300
C4703       C  0.00323501  0.12015444  0.44416213     0.12200
C4704       C  0.97535434  0.10843895  0.49125019     0.62800
H4705       H  0.98515707  0.06098645  0.50609726     0.12200
C4706       C  0.03249529  0.03259993  0.43743217     0.55000
H4707       H  0.02732475  0.08051745  0.42660799     0.08000
C4708       C  0.01937337  0.14037588  0.44934701    -0.05800
C4709       C  0.01551627  0.16340937  0.43702296    -0.06500
C4710       C  0.99805007  0.16588245  0.41777703    -0.16100
C4711       C  0.98295018  0.14503803  0.41167514    -0.01700
C4712       C  0.98525959  0.12286411  0.42557656    -0.09200
C4713       C  0.04197080  0.13686001  0.46584287     0.65000
H4714       H  0.02717344  0.17922572  0.44126223     0.10500
C4715       C  0.96467189  0.14594702  0.39031298     0.63400
H4716       H  0.97358681  0.10696612  0.42145053     0.07800
F4717       F  0.05658800  0.04066358  0.43315095    -0.19600
F4718       F  0.02040930  0.03043134  0.41486031    -0.15800
F4719       F  0.03371095  0.00940661  0.44831097    -0.19300
F4720       F  0.95605553  0.11421836  0.47528024    -0.22700
F4721       F  0.98806756  0.13002817  0.49684944    -0.24200
F4722       F  0.96515506  0.09928376  0.51313938    -0.18200
F4723       F  0.97758662  0.14876466  0.36821879    -0.20700
F4724       F  0.94840076  0.16564721  0.39360159    -0.21800
F4725       F  0.95075396  0.12433194  0.38862518    -0.19000
F4726       F  0.05532995  0.15872900  0.46850666    -0.19100
F4727       F  0.05741285  0.11929184  0.45512028    -0.22900
F4728       F  0.03510184  0.12869329  0.48926013    -0.24500
C4729       C  0.01390223  0.91183785  0.54031113    -0.11300
C4730       C  0.99430922  0.89640639  0.53250623     0.11200
C4731       C  0.98009598  0.90424507  0.51166998    -0.03200
C4732       C  0.98256221  0.92922643  0.50321189    -0.05900
C4733       C  0.99835388  0.94616725  0.51569346    -0.16700
C4734       C  0.01859390  0.93454799  0.52785636     0.02300
C4735       C  0.99039104  0.87169514  0.54505642     0.12200
C4736       C  0.96323479  0.88613476  0.49824203     0.62800
H4737       H  0.97107486  0.93587337  0.48810118     0.12200
C4738       C  0.04378814  0.93534556  0.51508114     0.55000
H4739       H  0.02786890  0.90413589  0.55265893     0.08000
C4740       C  0.00638867  0.85087372  0.54176082    -0.05800
C4741       C  0.00243125  0.82936073  0.55627018    -0.06500
C4742       C  0.98256532  0.82714596  0.57333736    -0.16100
C4743       C  0.96518900  0.84713821  0.57486335    -0.01700
C4744       C  0.97016117  0.86938325  0.56159387    -0.09200
C4745       C  0.02793213  0.84986914  0.52344875     0.65000
H4746       H  0.01563082  0.81415365  0.55446706     0.10500
C4747       C  0.94080805  0.84609730  0.58919308     0.63400
H4748       H  0.95770782  0.88512469  0.56383622     0.07800
F4749       F  0.04568225  0.91573257  0.49858128    -0.19600
F4750       F  0.06254124  0.93294151  0.53232860    -0.15800
F4751       F  0.04720442  0.95683442  0.50140994    -0.19300
F4752       F  0.94479833  0.87762375  0.51407346    -0.22700
F4753       F  0.97710654  0.86600193  0.49007847    -0.24200
F4754       F  0.95201179  0.89706557  0.47778681    -0.18200
F4755       F  0.92167751  0.85420413  0.57399539    -0.20700
F4756       F  0.94211109  0.86173817  0.60950734    -0.21800
F4757       F  0.93469550  0.82241838  0.59717268    -0.19000
F4758       F  0.02493850  0.82951342  0.50801251    -0.19100
F4759       F  0.04999293  0.84711316  0.53638601    -0.22900
F4760       F  0.02969855  0.87073960  0.50857220    -0.24500
C4761       C  0.95640738  0.09838185  0.28445381    -0.11300
C4762       C  0.94254234  0.12016349  0.28019684     0.11200
C4763       C  0.92097966  0.11949050  0.26546284    -0.03200
C4764       C  0.91083572  0.09618316  0.26017368    -0.05900
C4765       C  0.92298334  0.07407116  0.26724992    -0.16700
C4766       C  0.94727694  0.07504161  0.27709446     0.02300
C4767       C  0.94898161  0.14259772  0.29421285     0.12200
C4768       C  0.90906082  0.14318875  0.25541492     0.62800
H4769       H  0.89305218  0.09513779  0.25092147     0.12200
C4770       C  0.96317895  0.05187928  0.27984534     0.55000
H4771       H  0.97375804  0.09972732  0.29456896     0.08000
C4772       C  0.93684406  0.14812672  0.31688842    -0.05800
C4773       C  0.94407989  0.16948641  0.32977956    -0.06500
C4774       C  0.96471667  0.18375825  0.32221986    -0.16100
C4775       C  0.97715827  0.17776347  0.29940144    -0.01700
C4776       C  0.96837381  0.15751531  0.28549397    -0.09200
C4777       C  0.91745039  0.13068009  0.32819937     0.65000
H4778       H  0.93447738  0.17427010  0.34683260     0.10500
C4779       C  0.00020544  0.19142883  0.28993823     0.63400
H4780       H  0.97726384  0.15233547  0.26814333     0.07800
F4781       F  0.98618380  0.05722905  0.29004181    -0.19600
F4782       F  0.96701566  0.04136663  0.25668969    -0.15800
F4783       F  0.95149509  0.03477218  0.29501254    -0.19300
F4784       F  0.92614553  0.15561281  0.24061589    -0.22700
F4785       F  0.90176724  0.15876741  0.27451847    -0.24200
F4786       F  0.88834336  0.13807540  0.24110305    -0.18200
F4787       F  0.00844215  0.18223767  0.26730745    -0.20700
F4788       F  0.01945629  0.18859020  0.30675089    -0.21800
F4789       F  0.99502949  0.21646206  0.28656434    -0.19000
F4790       F  0.90920331  0.13890642  0.35117785    -0.19100
F4791       F  0.92771471  0.10725904  0.33144566    -0.22900
F4792       F  0.89698165  0.12875869  0.31286356    -0.24500
C4793       C  0.79296879  0.04515882  0.15318934    -0.11300
C4794       C  0.79015014  0.02530731  0.13671658     0.11200
C4795       C  0.80051384  0.00179580  0.14269920    -0.03200
C4796       C  0.81529198  0.99958796  0.16416788    -0.05900
C4797       C  0.81984911  0.02010598  0.17967746    -0.16700
C4798       C  0.80798466  0.04305144  0.17432375     0.02300
C4799       C  0.78286434  0.03238258  0.11115090     0.12200
C4800       C  0.79738158  0.97912220  0.12634515     0.62800
H4801       H  0.82415881  0.98188959  0.16833117     0.12200
C4802       C  0.81212752  0.06546192  0.19021606     0.55000
H4803       H  0.78504177  0.06305236  0.14812042     0.08000
C4804       C  0.75867286  0.04075516  0.10500516    -0.05800
C4805       C  0.75560815  0.05587725  0.08376462    -0.06500
C4806       C  0.77595377  0.06281151  0.06871939    -0.16100
C4807       C  0.79953926  0.05207198  0.07367326    -0.01700
C4808       C  0.80258201  0.03702364  0.09479194    -0.09200
C4809       C  0.73592664  0.03487401  0.12068128     0.65000
H4810       H  0.73731632  0.06337778  0.07963136     0.10500
C4811       C  0.82124183  0.05595531  0.05650966     0.63400
H4812       H  0.82091916  0.03020500  0.09974699     0.07800
F4813       F  0.79939754  0.08631927  0.18185815    -0.19600
F4814       F  0.83721345  0.07070108  0.18972214    -0.15800
F4815       F  0.80403580  0.06011537  0.21403220    -0.19300
F4816       F  0.81924235  0.97486206  0.11339140    -0.22700
F4817       F  0.77811198  0.98200542  0.10957111    -0.24200
F4818       F  0.79212952  0.95848253  0.14095155    -0.18200
F4819       F  0.82668909  0.08096378  0.05543104    -0.20700
F4820       F  0.81472964  0.04706276  0.03341956    -0.21800
F4821       F  0.84243985  0.04342274  0.06420800    -0.19000
F4822       F  0.71729248  0.02571613  0.10555457    -0.19100
F4823       F  0.72755678  0.05640977  0.13203621    -0.22900
F4824       F  0.74069974  0.01715795  0.13880939    -0.24500
C4825       C  0.77741474  0.96653525  0.40225068    -0.11300
C4826       C  0.77277764  0.95448328  0.37966144     0.11200
C4827       C  0.76009698  0.93152421  0.37968359    -0.03200
C4828       C  0.75671781  0.91905438  0.40243775    -0.05900
C4829       C  0.76482176  0.92941939  0.42494765    -0.16700
C4830       C  0.77286616  0.95462230  0.42517803     0.02300
C4831       C  0.78867042  0.96144554  0.35828702     0.12200
C4832       C  0.75085625  0.92021409  0.35562940     0.62800
H4833       H  0.74788194  0.90100077  0.40277052     0.12200
C4834       C  0.77805277  0.96848317  0.44909879     0.55000
H4835       H  0.78663901  0.98447039  0.40170216     0.08000
C4836       C  0.78199950  0.97810580  0.33904572    -0.05800
C4837       C  0.79952363  0.98288457  0.32008144    -0.06500
C4838       C  0.82397471  0.97303736  0.32065758    -0.16100
C4839       C  0.83067283  0.95708611  0.34091178    -0.01700
C4840       C  0.81246954  0.95094629  0.35859298    -0.09200
C4841       C  0.75722883  0.99168106  0.33774349     0.65000
H4842       H  0.79417403  0.99538073  0.30513722     0.10500
C4843       C  0.85702089  0.94787119  0.34564458     0.63400
H4844       H  0.81696413  0.93847548  0.37384183     0.07800
F4845       F  0.78495829  0.99296551  0.44472769    -0.19600
F4846       F  0.79720324  0.95694947  0.46149770    -0.15800
F4847       F  0.75703718  0.96879125  0.46401430    -0.19300
F4848       F  0.73711952  0.89882505  0.35990483    -0.22700
F4849       F  0.77073315  0.91435829  0.34034504    -0.24200
F4850       F  0.73567283  0.93710359  0.34349637    -0.18200
F4851       F  0.87238732  0.96818738  0.34903154    -0.20700
F4852       F  0.86536633  0.93354626  0.32602922    -0.21800
F4853       F  0.85868621  0.93323657  0.36686606    -0.19000
F4854       F  0.76146444  0.01710143  0.33685300    -0.19100
F4855       F  0.74192241  0.98684585  0.35790786    -0.22900
F4856       F  0.74490043  0.98470648  0.31632858    -0.24500
C4857       C  0.95582477  0.89837613  0.22909453    -0.11300
C4858       C  0.95859091  0.89516165  0.20344830     0.11200
C4859       C  0.94876731  0.91334125  0.18693200    -0.03200
C4860       C  0.93332062  0.93207551  0.19655637    -0.05900
C4861       C  0.92975003  0.93474066  0.22221286    -0.16700
C4862       C  0.94253312  0.91863738  0.23884904     0.02300
C4863       C  0.96457456  0.86978949  0.19461158     0.12200
C4864       C  0.95307172  0.91294710  0.15903894     0.62800
H4865       H  0.92397641  0.94473547  0.18389588     0.12200
C4866       C  0.94194116  0.92250452  0.26671011     0.55000
H4867       H  0.96280375  0.88403523  0.24144471     0.08000
C4868       C  0.98847548  0.85887150  0.19566104    -0.05800
C4869       C  0.99176931  0.83492331  0.18543097    -0.06500
C4870       C  0.97231296  0.82235858  0.17313110    -0.16100
C4871       C  0.94810868  0.83358047  0.17282392    -0.01700
C4872       C  0.94479324  0.85651585  0.18454431    -0.09200
C4873       C  0.01052523  0.87296587  0.20616977     0.65000
H4874       H  0.01016119  0.82662428  0.18539184     0.10500
C4875       C  0.92464169  0.82366350  0.16071512     0.63400
H4876       H  0.92641858  0.86500868  0.18471073     0.07800
F4877       F  0.95478884  0.90406731  0.27941178    -0.19600
F4878       F  0.91769134  0.92263890  0.27536749    -0.15800
F4879       F  0.95317585  0.94500016  0.27180144    -0.19300
F4880       F  0.93113571  0.90682105  0.14716830    -0.22700
F4881       F  0.97136713  0.89615923  0.15213077    -0.24200
F4882       F  0.96054423  0.93635515  0.15112537    -0.18200
F4883       F  0.90720549  0.81845621  0.17901915    -0.20700
F4884       F  0.92811598  0.80269809  0.14693521    -0.21800
F4885       F  0.91494335  0.84163990  0.14493874    -0.19000
F4886       F  0.03249098  0.85965298  0.20370408    -0.19100
F4887       F  0.00684812  0.87759841  0.23117535    -0.22900
F4888       F  0.01327073  0.89538036  0.19368040    -0.24500
C4889       C  0.81708118  0.87891349  0.24070980    -0.11300
C4890       C  0.81191060  0.86910223  0.26442204     0.11200
C4891       C  0.81819213  0.88345182  0.28559731    -0.03200
C4892       C  0.82982875  0.90682097  0.28231996    -0.05900
C4893       C  0.83484128  0.91668316  0.25865983    -0.16700
C4894       C  0.82763226  0.90282097  0.23739567     0.02300
C4895       C  0.79974064  0.84390282  0.26630629     0.12200
C4896       C  0.81152124  0.87461898  0.31149006     0.62800
H4897       H  0.83453097  0.91791453  0.29827157     0.12200
C4898       C  0.83099232  0.91312832  0.21127752     0.55000
H4899       H  0.81242228  0.86773170  0.22468524     0.08000
C4900       C  0.77426618  0.84017205  0.26054458    -0.05800
C4901       C  0.76468902  0.81568926  0.26064116    -0.06500
C4902       C  0.77947228  0.79467426  0.26607581    -0.16100
C4903       C  0.80444686  0.79865786  0.27377907    -0.01700
C4904       C  0.81427780  0.82309775  0.27298604    -0.09200
C4905       C  0.75731023  0.86181295  0.25361048     0.65000
H4906       H  0.74565824  0.81260100  0.25503305     0.10500
C4907       C  0.82137351  0.77833157  0.28371820     0.63400
H4908       H  0.83367246  0.82597728  0.27767035     0.07800
F4909       F  0.82264591  0.89668420  0.19335894    -0.19600
F4910       F  0.85586687  0.91770685  0.20672852    -0.15800
F4911       F  0.81762691  0.93503630  0.20876609    -0.19300
F4912       F  0.82364578  0.85253409  0.31684280    -0.22700
F4913       F  0.78617181  0.87094000  0.31259945    -0.24200
F4914       F  0.81789582  0.89181963  0.32951155    -0.18200
F4915       F  0.84233367  0.77657414  0.26880967    -0.20700
F4916       F  0.81010384  0.75525138  0.28480397    -0.21800
F4917       F  0.82869037  0.78452044  0.30756056    -0.19000
F4918       F  0.73297645  0.85416938  0.25006203    -0.19100
F4919       F  0.76539355  0.87279239  0.23175651    -0.22900
F4920       F  0.75731921  0.87939549  0.27232982    -0.24500
C4921       C  0.80767514  0.11715305  0.26556602    -0.11300
C4922       C  0.81290418  0.13381177  0.24592331     0.11200
C4923       C  0.82973713  0.12625612  0.22705349    -0.03200
C4924       C  0.84176376  0.10314956  0.22944712    -0.05900
C4925       C  0.83457629  0.08525035  0.24727624    -0.16700
C4926       C  0.81731887  0.09254469  0.26603953     0.02300
C4927       C  0.80098771  0.15912130  0.24563740     0.12200
C4928       C  0.83436907  0.14171456  0.20368846     0.62800
H4929       H  0.85660217  0.09873121  0.21654508     0.12200
C4930       C  0.80964416  0.07495152  0.28687549     0.55000
H4931       H  0.79568394  0.12352346  0.28045300     0.08000
C4932       C  0.77492072  0.16266554  0.24377399    -0.05800
C4933       C  0.76535161  0.18712099  0.24454102    -0.06500
C4934       C  0.78074136  0.20842758  0.24444921    -0.16100
C4935       C  0.80702489  0.20460411  0.24345797    -0.01700
C4936       C  0.81642579  0.18018737  0.24586930    -0.09200
C4937       C  0.75709171  0.14095900  0.24056602     0.65000
H4938       H  0.74540380  0.18973427  0.24571458     0.10500
C4939       C  0.82633274  0.22458785  0.23862838     0.63400
H4940       H  0.83634784  0.17752774  0.24749321     0.07800
F4941       F  0.79614343  0.05534105  0.27719019    -0.19600
F4942       F  0.79488834  0.08670737  0.30446606    -0.15800
F4943       F  0.83053911  0.06584054  0.29885464    -0.19300
F4944       F  0.85042904  0.16111271  0.20868464    -0.22700
F4945       F  0.81215122  0.15115717  0.19470122    -0.24200
F4946       F  0.84491364  0.12746129  0.18496982    -0.18200
F4947       F  0.84296740  0.22538359  0.25812378    -0.20700
F4948       F  0.81617313  0.24786698  0.23535526    -0.21800
F4949       F  0.83949316  0.21863773  0.21729386    -0.19000
F4950       F  0.73388330  0.14899611  0.23273150    -0.19100
F4951       F  0.75407253  0.12848768  0.26289217    -0.22900
F4952       F  0.76615583  0.12461760  0.22283771    -0.24500
C4953       C  0.93564962  0.98907194  0.36930978    -0.11300
C4954       C  0.94091455  0.01218416  0.38052171     0.11200
C4955       C  0.93747821  0.03408385  0.36565750    -0.03200
C4956       C  0.92421186  0.03218288  0.34299149    -0.05900
C4957       C  0.91925864  0.00897730  0.33200868    -0.16700
C4958       C  0.92745156  0.98721085  0.34452090     0.02300
C4959       C  0.95126413  0.01164017  0.40680919     0.12200
C4960       C  0.94809389  0.05950166  0.37188499     0.62800
H4961       H  0.91930251  0.04900112  0.33287373     0.12200
C4962       C  0.93050721  0.96267171  0.33102452     0.55000
H4963       H  0.93921656  0.97215825  0.37973081     0.08000
C4964       C  0.94236653  0.02639785  0.42700353    -0.05800
C4965       C  0.95488665  0.02526469  0.45012114    -0.06500
C4966       C  0.97242353  0.00658010  0.45573068    -0.16100
C4967       C  0.97975569  0.99025136  0.43613924    -0.01700
C4968       C  0.97004542  0.99404592  0.41208072    -0.09200
C4969       C  0.91913417  0.04253996  0.42610230     0.65000
H4970       H  0.94996857  0.03853293  0.46431878     0.10500
C4971       C  0.99756481  0.96832181  0.43883329     0.63400
H4972       H  0.97702181  0.98244892  0.39711901     0.07800
F4973       F  0.90895084  0.95581188  0.31911134    -0.19600
F4974       F  0.93727358  0.94347691  0.34691189    -0.15800
F4975       F  0.94919954  0.96560397  0.31363164    -0.19300
F4976       F  0.96169164  0.06819863  0.35173389    -0.22700
F4977       F  0.96386986  0.05900743  0.39211030    -0.24200
F4978       F  0.92887029  0.07603975  0.37649227    -0.18200
F4979       F  0.98463355  0.94648668  0.43455615    -0.20700
F4980       F  0.00858489  0.96656992  0.46184544    -0.21800
F4981       F  0.01639095  0.97027535  0.42128598    -0.19000
F4982       F  0.92568772  0.06731262  0.42872806    -0.19100
F4983       F  0.90355307  0.03598861  0.44554371    -0.22900
F4984       F  0.90556373  0.03972006  0.40457346    -0.24500
C4985       C  0.09224660  0.27620080  0.96429323    -0.11300
C4986       C  0.10928827  0.29272939  0.95351869     0.11200
C4987       C  0.10592515  0.30104592  0.92881050    -0.03200
C4988       C  0.08498792  0.29297114  0.91575728    -0.05900
C4989       C  0.06760660  0.27634416  0.92621854    -0.16700
C4990       C  0.07125051  0.26773815  0.95115184     0.02300
C4991       C  0.13054930  0.30156168  0.96839029     0.12200
C4992       C  0.12487341  0.31775213  0.91596080     0.62800
H4993       H  0.08237715  0.29941674  0.89685275     0.12200
C4994       C  0.05365239  0.24958625  0.96405381     0.55000
H4995       H  0.09557755  0.27015271  0.98323361     0.08000
C4996       C  0.12972519  0.32449796  0.98119219    -0.05800
C4997       C  0.15217275  0.33585983  0.98747166    -0.06500
C4998       C  0.17515857  0.32447386  0.98268287    -0.16100
C4999       C  0.17576915  0.29956745  0.97397158    -0.01700
C5000       C  0.15320729  0.28864738  0.96636962    -0.09200
C5001       C  0.10615378  0.33853322  0.98775085     0.65000
H5002       H  0.15172164  0.35427918  0.99576587     0.10500
C5003       C  0.19983101  0.28495042  0.97182949     0.63400
H5004       H  0.15322358  0.27060555  0.95738676     0.07800
F5005       F  0.06093985  0.24439757  0.98821180    -0.19600
F5006       F  0.05318346  0.22725328  0.95127092    -0.15800
F5007       F  0.02995292  0.25967028  0.96515355    -0.19300
F5008       F  0.14758018  0.30564052  0.91492476    -0.22700
F5009       F  0.12746966  0.33978895  0.92890876    -0.24200
F5010       F  0.11798022  0.32366058  0.89185320    -0.18200
F5011       F  0.21098061  0.28322967  0.99489836    -0.20700
F5012       F  0.21577243  0.29666188  0.95540454    -0.21800
F5013       F  0.19581452  0.26095584  0.96334824    -0.19000
F5014       F  0.10549953  0.34242658  0.01318104    -0.19100
F5015       F  0.08462252  0.32617435  0.98122647    -0.22900
F5016       F  0.10662599  0.36137080  0.97584603    -0.24500
C5017       C  0.01260654  0.13999755  0.80548217    -0.11300
C5018       C  0.03803199  0.13436111  0.80661117     0.11200
C5019       C  0.05428265  0.14982867  0.82023991    -0.03200
C5020       C  0.04406115  0.16919785  0.83444352    -0.05900
C5021       C  0.01850548  0.17467855  0.83387274    -0.16700
C5022       C  0.00246391  0.16025562  0.81867830     0.02300
C5023       C  0.04723802  0.11146129  0.79439463     0.12200
C5024       C  0.08230978  0.14612239  0.81932256     0.62800
H5025       H  0.05610034  0.18060603  0.84579640     0.12200
C5026       C  0.97473882  0.16556504  0.81696146     0.55000
H5027       H  0.00075509  0.12811620  0.79440268     0.08000
C5028       C  0.04775094  0.08837420  0.80712963    -0.05800
C5029       C  0.06092452  0.06848771  0.79637263    -0.06500
C5030       C  0.07343061  0.07119430  0.77360897    -0.16100
C5031       C  0.06928515  0.09300541  0.75912215    -0.01700
C5032       C  0.05672089  0.11312726  0.77016726    -0.09200
C5033       C  0.03475702  0.08501829  0.83206409     0.65000
H5034       H  0.06217912  0.05090773  0.80604797     0.10500
C5035       C  0.07674622  0.09606684  0.73201270     0.63400
H5036       H  0.05474053  0.13050390  0.75999262     0.07800
F5037       F  0.96239830  0.14758455  0.80333445    -0.19600
F5038       F  0.97095132  0.18830552  0.80538890    -0.15800
F5039       F  0.96432181  0.16604597  0.84051123    -0.19300
F5040       F  0.09048358  0.14882782  0.79507078    -0.22700
F5041       F  0.08851496  0.12257634  0.82780359    -0.24200
F5042       F  0.09474622  0.16341852  0.83371994    -0.18200
F5043       F  0.05558741  0.10066735  0.71811970    -0.20700
F5044       F  0.08824055  0.07533163  0.72215390    -0.21800
F5045       F  0.09260488  0.11616674  0.72946815    -0.19000
F5046       F  0.03737231  0.06101194  0.84117644    -0.19100
F5047       F  0.00960004  0.08979732  0.82942828    -0.22900
F5048       F  0.04456044  0.10125600  0.84936074    -0.24500
C5049       C  0.95998014  0.33457357  0.78238028    -0.11300
C5050       C  0.96676387  0.35827299  0.79095983     0.11200
C5051       C  0.98291174  0.36050661  0.81149616    -0.03200
C5052       C  0.98991569  0.33880967  0.82422282    -0.05900
C5053       C  0.98085560  0.31527252  0.81743046    -0.16700
C5054       C  0.96708949  0.31275013  0.79509447     0.02300
C5055       C  0.95226376  0.37996496  0.78216502     0.12200
C5056       C  0.99159839  0.38578991  0.82069508     0.62800
H5057       H  0.00130547  0.34027245  0.84072751     0.12200
C5058       C  0.95812989  0.28821212  0.78448720     0.55000
H5059       H  0.94770655  0.33320981  0.76646534     0.08000
C5060       C  0.95973370  0.39616863  0.76276426    -0.05800
C5061       C  0.94525726  0.41753554  0.75801442    -0.06500
C5062       C  0.92322627  0.42271291  0.77141274    -0.16100
C5063       C  0.91511263  0.40528250  0.78999964    -0.01700
C5064       C  0.93011227  0.38450129  0.79503321    -0.09200
C5065       C  0.98236830  0.39179599  0.74638804     0.65000
H5066       H  0.95120293  0.43016631  0.74338453     0.10500
C5067       C  0.89087363  0.40780657  0.80470981     0.63400
H5068       H  0.92480085  0.37136639  0.80946161     0.07800
F5069       F  0.96666074  0.28603629  0.76027412    -0.19600
F5070       F  0.93237961  0.28790581  0.78432676    -0.15800
F5071       F  0.96639538  0.26770959  0.79758773    -0.19300
F5072       F  0.97144095  0.39988244  0.82840267    -0.22700
F5073       F  0.00381963  0.39820515  0.80169549    -0.24200
F5074       F  0.00784695  0.38362031  0.84053753    -0.18200
F5075       F  0.89056212  0.43010398  0.81752619    -0.20700
F5076       F  0.88788534  0.38893039  0.82210597    -0.21800
F5077       F  0.87075882  0.40655366  0.78874876    -0.19000
F5078       F  0.99887053  0.41132772  0.74921415    -0.19100
F5079       F  0.97492858  0.39090007  0.72179465    -0.22900
F5080       F  0.99470655  0.36982240  0.75177963    -0.24500
C5081       C  0.86231519  0.18554895  0.95655985    -0.11300
C5082       C  0.86736560  0.20539308  0.97241616     0.11200
C5083       C  0.85080973  0.21138548  0.99186698    -0.03200
C5084       C  0.83009723  0.19587277  0.99589750    -0.05900
C5085       C  0.82528397  0.17517754  0.98053302    -0.16700
C5086       C  0.84134261  0.17047529  0.95972691     0.02300
C5087       C  0.88949727  0.22029834  0.96617989     0.12200
C5088       C  0.85544590  0.23374401  0.00837043     0.62800
H5089       H  0.81774079  0.19966961  0.01138006     0.12200
C5090       C  0.83692474  0.15014854  0.94042924     0.55000
H5091       H  0.87521218  0.18208347  0.94139920     0.08000
C5092       C  0.91383781  0.21054939  0.96917248    -0.05800
C5093       C  0.93290734  0.21947799  0.95359584    -0.06500
C5094       C  0.92804119  0.23755798  0.93539233    -0.16100
C5095       C  0.90444491  0.24934143  0.93466002    -0.01700
C5096       C  0.88546026  0.24039775  0.95012399    -0.09200
C5097       C  0.92016599  0.18987269  0.98741134     0.65000
H5098       H  0.95127664  0.21116428  0.95463409     0.10500
C5099       C  0.89854742  0.26980297  0.91620853     0.63400
H5100       H  0.86660474  0.24721038  0.94775698     0.07800
F5101       F  0.85294755  0.15219917  0.92027966    -0.19600
F5102       F  0.81305057  0.15200153  0.93121516    -0.15800
F5103       F  0.84065440  0.12682420  0.95081397    -0.19300
F5104       F  0.85482781  0.25532640  0.99426156    -0.22700
F5105       F  0.87855884  0.23158138  0.01942766    -0.24200
F5106       F  0.83767339  0.23581104  0.02695986    -0.18200
F5107       F  0.89671345  0.25963420  0.89274081    -0.20700
F5108       F  0.91710011  0.28761924  0.91668581    -0.21800
F5109       F  0.87620910  0.28153450  0.92165299    -0.19000
F5110       F  0.93968054  0.19746697  0.00227689    -0.19100
F5111       F  0.92736055  0.16883249  0.97445260    -0.22900
F5112       F  0.90043898  0.18367957  0.00282792    -0.24500
C5113       C  0.10535687  0.23114896  0.80005315    -0.11300
C5114       C  0.12701973  0.23539651  0.81410429     0.11200
C5115       C  0.12426001  0.24020574  0.83999448    -0.03200
C5116       C  0.10054122  0.23775365  0.85106445    -0.05900
C5117       C  0.07880079  0.23380307  0.83706999    -0.16700
C5118       C  0.08121900  0.23154248  0.81075898     0.02300
C5119       C  0.15164727  0.23613474  0.80056330     0.12200
C5120       C  0.14499564  0.24924408  0.85687468     0.62800
H5121       H  0.09884226  0.24078299  0.87094104     0.12200
C5122       C  0.05872742  0.23056302  0.79369714     0.55000
H5123       H  0.10752088  0.22840694  0.78021415     0.08000
C5124       C  0.17212332  0.22021306  0.80605935    -0.05800
C5125       C  0.19540409  0.22490775  0.79461118    -0.06500
C5126       C  0.19841987  0.24285249  0.77563454    -0.16100
C5127       C  0.17700314  0.25659912  0.76805034    -0.01700
C5128       C  0.15447964  0.25364721  0.78129603    -0.09200
C5129       C  0.17049581  0.19793595  0.82348292     0.65000
H5130       H  0.21128857  0.21386812  0.80023368     0.10500
C5131       C  0.17600747  0.27399143  0.74573915     0.63400
H5132       H  0.13862384  0.26511707  0.77624515     0.07800
F5133       F  0.04287943  0.21167115  0.80091517    -0.19600
F5134       F  0.06545648  0.22630773  0.76918715    -0.15800
F5135       F  0.04616164  0.25306592  0.79454119    -0.19300
F5136       F  0.16707749  0.25398787  0.84455524    -0.22700
F5137       F  0.14928877  0.23161664  0.87520130    -0.24200
F5138       F  0.13760903  0.27122889  0.86811421    -0.18200
F5139       F  0.15872331  0.26497583  0.72901411    -0.20700
F5140       F  0.19844699  0.27635776  0.73341024    -0.21800
F5141       F  0.16838762  0.29739174  0.75336839    -0.19000
F5142       F  0.18425270  0.20256490  0.84463631    -0.19100
F5143       F  0.18033400  0.17720341  0.81179016    -0.22900
F5144       F  0.14635434  0.19221895  0.83037225    -0.24500
C5145       C  0.99347981  0.37825915  0.91762524    -0.11300
C5146       C  0.01644207  0.38619351  0.92705911     0.11200
C5147       C  0.03690502  0.36946519  0.92641667    -0.03200
C5148       C  0.03394742  0.34582538  0.91518004    -0.05900
C5149       C  0.01081616  0.33767484  0.90636991    -0.16700
C5150       C  0.99006032  0.35414532  0.90782337     0.02300
C5151       C  0.01650780  0.40968914  0.94207244     0.12200
C5152       C  0.06115827  0.37566856  0.93924199     0.62800
H5153       H  0.04944362  0.33295932  0.91426570     0.12200
C5154       C  0.96428517  0.34659219  0.89915526     0.55000
H5155       H  0.97786105  0.39096399  0.91899489     0.08000
C5156       C  0.02293938  0.43357128  0.93253071    -0.05800
C5157       C  0.02160317  0.45446802  0.94859239    -0.06500
C5158       C  0.01028898  0.45293846  0.97223562    -0.16100
C5159       C  0.00040203  0.42943812  0.97990438    -0.01700
C5160       C  0.00569812  0.40815314  0.96573741    -0.09200
C5161       C  0.02884714  0.43744446  0.90513442     0.65000
H5162       H  0.02760993  0.47262092  0.94209348     0.10500
C5163       C  0.98224202  0.42554840  0.00126263     0.63400
H5164       H  0.99909974  0.39015503  0.97224068     0.07800
F5165       F  0.96439984  0.34377832  0.87370107    -0.19600
F5166       F  0.94648320  0.36437116  0.90493509    -0.15800
F5167       F  0.95719040  0.32449855  0.91038482    -0.19300
F5168       F  0.05676368  0.37937948  0.96430304    -0.22700
F5169       F  0.07155370  0.39695776  0.92926922    -0.24200
F5170       F  0.07827467  0.35659021  0.93667419    -0.18200
F5171       F  0.96098142  0.41411789  0.99236664    -0.20700
F5172       F  0.97492844  0.44742989  0.01225310    -0.21800
F5173       F  0.99276707  0.41019312  0.01907419    -0.19000
F5174       F  0.03150254  0.46247291  0.89933555    -0.19100
F5175       F  0.00966468  0.42810716  0.89085936    -0.22900
F5176       F  0.05061002  0.42541387  0.89868775    -0.24500
C5177       C  0.87482027  0.28203938  0.82496112    -0.11300
C5178       C  0.86459626  0.25961204  0.81656174     0.11200
C5179       C  0.87901525  0.23748681  0.81815642    -0.03200
C5180       C  0.90327724  0.23870848  0.82807089    -0.05900
C5181       C  0.91326687  0.26098439  0.83738843    -0.16700
C5182       C  0.89859318  0.28314789  0.83601370     0.02300
C5183       C  0.83909264  0.26018465  0.80536387     0.12200
C5184       C  0.86848857  0.21248728  0.81033813     0.62800
H5185       H  0.91432766  0.22187622  0.82961019     0.12200
C5186       C  0.90774562  0.30810153  0.84561294     0.55000
H5187       H  0.86367263  0.29876505  0.82307539     0.08000
C5188       C  0.81710357  0.26269151  0.81979548    -0.05800
C5189       C  0.79389991  0.26359556  0.80756310    -0.06500
C5190       C  0.79159888  0.26040065  0.78165360    -0.16100
C5191       C  0.81386645  0.25731501  0.76739557    -0.01700
C5192       C  0.83707041  0.25859336  0.77946082    -0.09200
C5193       C  0.81802982  0.26416863  0.84800689     0.65000
H5194       H  0.77723200  0.26671429  0.81836983     0.10500
C5195       C  0.81491998  0.25168281  0.73971359     0.63400
H5196       H  0.85401593  0.25718899  0.76850970     0.07800
F5197       F  0.91015510  0.30743377  0.87113028    -0.19600
F5198       F  0.89155375  0.32735741  0.83982462    -0.15800
F5199       F  0.93038982  0.31368440  0.83503624    -0.19300
F5200       F  0.86367381  0.21254184  0.78511045    -0.22700
F5201       F  0.84669061  0.20791018  0.82328014    -0.24200
F5202       F  0.88479744  0.19309090  0.81525026    -0.18200
F5203       F  0.82531606  0.27179245  0.72734011    -0.20700
F5204       F  0.79206507  0.24647789  0.72936772    -0.21800
F5205       F  0.82994206  0.23107074  0.73582730    -0.19000
F5206       F  0.79444062  0.26376135  0.85849652    -0.19100
F5207       F  0.82952923  0.28600290  0.85515031    -0.22900
F5208       F  0.83117760  0.24411061  0.85746363    -0.24500
C5209       C  0.88225111  0.07674061  0.00581985    -0.11300
C5210       C  0.88165896  0.05392301  0.99346791     0.11200
C5211       C  0.85888756  0.04474169  0.98412215    -0.03200
C5212       C  0.83719392  0.05904988  0.98766936    -0.05900
C5213       C  0.83743707  0.08183969  0.00064042    -0.16700
C5214       C  0.86084324  0.09143881  0.00904123     0.02300
C5215       C  0.90562494  0.04051893  0.99087328     0.12200
C5216       C  0.85730919  0.01981756  0.97087033     0.62800
H5217       H  0.81960202  0.05204574  0.98089097     0.12200
C5218       C  0.86423400  0.11728818  0.02036338     0.55000
H5219       H  0.90009324  0.08311101  0.01263226     0.08000
C5220       C  0.92418850  0.04824159  0.97371411    -0.05800
C5221       C  0.94801217  0.03739264  0.97566857    -0.06500
C5222       C  0.95336185  0.01911374  0.99393926    -0.16100
C5223       C  0.93221742  0.00609380  0.00262868    -0.01700
C5224       C  0.91036993  0.01992372  0.00626839    -0.09200
C5225       C  0.91890742  0.06738763  0.95346206     0.65000
H5226       H  0.96239451  0.04372735  0.96328052     0.10500
C5227       C  0.92722954  0.98045115  0.99218320     0.63400
H5228       H  0.89538364  0.01209105  0.01731880     0.07800
F5229       F  0.88898840  0.12258202  0.02517103    -0.19600
F5230       F  0.85152866  0.11932307  0.04263971    -0.15800
F5231       F  0.85581388  0.13518602  0.00394295    -0.19300
F5232       F  0.86240592  0.00071805  0.98737553    -0.22700
F5233       F  0.87422738  0.01894822  0.95147613    -0.24200
F5234       F  0.83384719  0.01571977  0.96113296    -0.18200
F5235       F  0.91525672  0.96591497  0.00972398    -0.20700
F5236       F  0.94873711  0.96891176  0.98412638    -0.21800
F5237       F  0.91186170  0.98254153  0.97164951    -0.19000
F5238       F  0.93952370  0.07142066  0.93846025    -0.19100
F5239       F  0.91200075  0.08989812  0.96373814    -0.22900
F5240       F  0.89982000  0.05907494  0.93850799    -0.24500
C5241       C  0.02441856  0.00903437  0.90786423    -0.11300
C5242       C  0.04976235  0.00506769  0.90412332     0.11200
C5243       C  0.06549700  0.00141031  0.92481812    -0.03200
C5244       C  0.05513933  0.00357750  0.94870255    -0.05900
C5245       C  0.02925093  0.00591872  0.95285634    -0.16700
C5246       C  0.01356085  0.00650714  0.93142987     0.02300
C5247       C  0.05943232  0.00663251  0.87843985     0.12200
C5248       C  0.09298592  0.99501467  0.92189291     0.62800
H5249       H  0.06769178  0.00404454  0.96416655     0.12200
C5250       C  0.98578421  0.00194229  0.93114243     0.55000
H5251       H  0.01262668  0.01227885  0.89183114     0.08000
C5252       C  0.05432831  0.98849678  0.86005325    -0.05800
C5253       C  0.06467454  0.99179724  0.83625911    -0.06500
C5254       C  0.08138756  0.01126149  0.83108577    -0.16100
C5255       C  0.08665078  0.02923001  0.84982506    -0.01700
C5256       C  0.07413085  0.02727993  0.87261292    -0.09200
C5257       C  0.03939426  0.96507205  0.86572904     0.65000
H5258       H  0.06120241  0.97804896  0.82199029     0.10500
C5259       C  0.10651832  0.04934447  0.84719303     0.63400
H5260       H  0.07694983  0.04117199  0.88689968     0.07800
F5261       F  0.98021067  0.98439789  0.91317194    -0.19600
F5262       F  0.97355825  0.02381262  0.92520455    -0.15800
F5263       F  0.97700559  0.99257132  0.95319357    -0.19300
F5264       F  0.10598222  0.01513190  0.91243945    -0.22700
F5265       F  0.09569630  0.97498215  0.90598019    -0.24200
F5266       F  0.10368393  0.98852187  0.94440134    -0.18200
F5267       F  0.10497541  0.06679510  0.86607041    -0.20700
F5268       F  0.10417456  0.06203617  0.82500792    -0.21800
F5269       F  0.12985774  0.03849881  0.84832886    -0.19000
F5270       F  0.03826668  0.94929974  0.84541509    -0.19100
F5271       F  0.01526190  0.97110481  0.87226037    -0.22900
F5272       F  0.05042387  0.95216075  0.88506151    -0.24500
C5273       C  0.99463006  0.87399218  0.07249634    -0.11300
C5274       C  0.01470265  0.87743753  0.05625190     0.11200
C5275       C  0.03138121  0.85744846  0.05184813    -0.03200
C5276       C  0.02661175  0.83415737  0.06339066    -0.05900
C5277       C  0.00688368  0.83101099  0.08038161    -0.16700
C5278       C  0.99044422  0.85127657  0.08473675     0.02300
C5279       C  0.01649649  0.90208060  0.04354665     0.12200
C5280       C  0.05509125  0.86133597  0.03685462     0.62800
H5281       H  0.03884937  0.81856147  0.06003638     0.12200
C5282       C  0.96892365  0.84943273  0.10287349     0.55000
H5283       H  0.98237933  0.88957786  0.07595791     0.08000
C5284       C  0.00451340  0.90631615  0.02053919    -0.05800
C5285       C  0.00382214  0.93070198  0.01102248    -0.06500
C5286       C  0.01122504  0.95144333  0.02507343    -0.16100
C5287       C  0.02357910  0.94727261  0.04799539    -0.01700
C5288       C  0.02631878  0.92249308  0.05665701    -0.09200
C5289       C  0.98978305  0.88591995  0.00755572     0.65000
H5290       H  0.99474051  0.93414777  0.99344390     0.10500
C5291       C  0.03408646  0.96788420  0.06403181     0.63400
H5292       H  0.03511227  0.91913634  0.07448235     0.07800
F5293       F  0.95318261  0.86985580  0.10148875    -0.19600
F5294       F  0.97832495  0.84837058  0.12665249    -0.15800
F5295       F  0.95496171  0.82841138  0.09795021    -0.19300
F5296       F  0.07043069  0.87754908  0.04953737    -0.22700
F5297       F  0.05004269  0.87142300  0.01375467    -0.24200
F5298       F  0.06775734  0.83916571  0.03320880    -0.18200
F5299       F  0.02326907  0.96671916  0.08740052    -0.20700
F5300       F  0.02996146  0.99143399  0.05442536    -0.21800
F5301       F  0.05950640  0.96450352  0.06638105    -0.19000
F5302       F  0.97999864  0.89403971  0.98514886    -0.19100
F5303       F  0.97017928  0.87860089  0.02262390    -0.22900
F5304       F  0.00458276  0.86545103  0.00272196    -0.24500
C5305       C  0.07884518  0.93908384  0.97929951    -0.11300
C5306       C  0.09857216  0.95108507  0.99164962     0.11200
C5307       C  0.09346469  0.97431370  0.00334684    -0.03200
C5308       C  0.06852565  0.98213097  0.00584090    -0.05900
C5309       C  0.04908343  0.97075549  0.99262773    -0.16700
C5310       C  0.05476806  0.94954806  0.97786451     0.02300
C5311       C  0.12414098  0.93951430  0.99017237     0.12200
C5312       C  0.11318464  0.99269537  0.01172179     0.62800
H5313       H  0.06453088  0.99907860  0.01605475     0.12200
C5314       C  0.03720279  0.93807406  0.95911453     0.55000
H5315       H  0.08263503  0.92195657  0.96931843     0.08000
C5316       C  0.13935386  0.93432609  0.01120799    -0.05800
C5317       C  0.16414865  0.92637565  0.00734660    -0.06500
C5318       C  0.17327561  0.91976690  0.98366560    -0.16100
C5319       C  0.15698109  0.92210674  0.96299473    -0.01700
C5320       C  0.13334538  0.93304149  0.96652006    -0.09200
C5321       C  0.13033643  0.93555187  0.03801566     0.65000
H5322       H  0.17584019  0.92304343  0.02344100     0.10500
C5323       C  0.16271222  0.91296229  0.93695136     0.63400
H5324       H  0.12159514  0.93606849  0.95042169     0.07800
F5325       F  0.03225686  0.91366051  0.96578818    -0.19600
F5326       F  0.04857973  0.93812547  0.93598854    -0.15800
F5327       F  0.01499175  0.95084344  0.95690968    -0.19300
F5328       F  0.13716351  0.98544915  0.00588081    -0.22700
F5329       F  0.11136239  0.99609517  0.03714840    -0.24200
F5330       F  0.10904430  0.01535360  0.00004570    -0.18200
F5331       F  0.14655336  0.89379460  0.93119456    -0.20700
F5332       F  0.18667957  0.90436206  0.93401204    -0.21800
F5333       F  0.15910278  0.93221816  0.92023595    -0.19000
F5334       F  0.14264985  0.95449286  0.05023952    -0.19100
F5335       F  0.13569032  0.91322838  0.04983496    -0.22900
F5336       F  0.10498618  0.93938173  0.04013647    -0.24500
C5337       C  0.95155568  0.99915575  0.13757251    -0.11300
C5338       C  0.93699519  0.99810070  0.11599817     0.11200
C5339       C  0.91074394  0.99624967  0.11853645    -0.03200
C5340       C  0.90018090  0.99475052  0.14263343    -0.05900
C5341       C  0.91466243  0.99611019  0.16444333    -0.16700
C5342       C  0.94092869  0.99928844  0.16172088     0.02300
C5343       C  0.94981181  0.99666800  0.09111367     0.12200
C5344       C  0.89382709  0.99627959  0.09587833     0.62800
H5345       H  0.88019336  0.99293873  0.14455107     0.12200
C5346       C  0.95794364  0.00325033  0.18386577     0.55000
H5347       H  0.97156271  0.99997222  0.13526454     0.08000
C5348       C  0.96147689  0.01715791  0.07920375    -0.05800
C5349       C  0.97247809  0.01368152  0.05548804    -0.06500
C5350       C  0.97152551  0.99082317  0.04243830    -0.16100
C5351       C  0.95930361  0.97040985  0.05483461    -0.01700
C5352       C  0.95020803  0.97361509  0.07924652    -0.09200
C5353       C  0.96227985  0.04264279  0.09134667     0.65000
H5354       H  0.98221176  0.02911827  0.04688937     0.10500
C5355       C  0.95373626  0.94497826  0.04431382     0.63400
H5356       H  0.94197252  0.95786408  0.08895869     0.07800
F5357       F  0.95193906  0.02549179  0.19537272    -0.19600
F5358       F  0.98275099  0.00450679  0.17686674    -0.15800
F5359       F  0.95547474  0.98383344  0.20061668    -0.19300
F5360       F  0.89755023  0.97494437  0.08203815    -0.22700
F5361       F  0.89885267  0.01688836  0.08118500    -0.24200
F5362       F  0.86891166  0.99717037  0.10252122    -0.18200
F5363       F  0.96801459  0.92752216  0.05652894    -0.20700
F5364       F  0.95793281  0.94339078  0.01937114    -0.21800
F5365       F  0.92894932  0.93907444  0.04831257    -0.19000
F5366       F  0.97364309  0.06022082  0.07618934    -0.19100
F5367       F  0.97553046  0.04140285  0.11329268    -0.22900
F5368       F  0.93833433  0.05070588  0.09636018    -0.24500
C5369       C  0.96942569  0.13126899  0.94336427    -0.11300
C5370       C  0.98950853  0.12782628  0.95972336     0.11200
C5371       C  0.00598824  0.14814473  0.96351220    -0.03200
C5372       C  0.00325299  0.16999401  0.94896142    -0.05900
C5373       C  0.98414372  0.17285715  0.93126469    -0.16700
C5374       C  0.96598913  0.15359743  0.92962131     0.02300
C5375       C  0.99424117  0.10203269  0.96996634     0.12200
C5376       C  0.02693858  0.14785040  0.98238553     0.62800
H5377       H  0.01680944  0.18477941  0.95106491     0.12200
C5378       C  0.94314539  0.15599881  0.91325442     0.55000
H5379       H  0.95674079  0.11587927  0.94072024     0.08000
C5380       C  0.98125297  0.09197697  0.99068174    -0.05800
C5381       C  0.98613244  0.06699094  0.99804107    -0.06500
C5382       C  0.00296557  0.05132999  0.98487752    -0.16100
C5383       C  0.02063440  0.06454429  0.96994814    -0.01700
C5384       C  0.01404735  0.08810707  0.96007338    -0.09200
C5385       C  0.96281361  0.10772848  0.00522306     0.65000
H5386       H  0.97555918  0.05915107  0.01328947     0.10500
C5387       C  0.04838354  0.05979083  0.97098272     0.63400
H5388       H  0.02642499  0.09711109  0.94683655     0.07800
F5389       F  0.92480537  0.13925139  0.92030664    -0.19600
F5390       F  0.94959339  0.15131724  0.88881896    -0.15800
F5391       F  0.93305964  0.17963283  0.91505131    -0.19300
F5392       F  0.04953391  0.14860671  0.97000857    -0.22700
F5393       F  0.02662771  0.12711998  0.99770134    -0.24200
F5394       F  0.02495209  0.16867494  0.99738844    -0.18200
F5395       F  0.05737221  0.05461087  0.94745418    -0.20700
F5396       F  0.05441237  0.04102241  0.98751066    -0.21800
F5397       F  0.06027271  0.08106913  0.97932905    -0.19000
F5398       F  0.95224993  0.09458069  0.02478896    -0.19100
F5399       F  0.94388145  0.11578498  0.98988509    -0.22900
F5400       F  0.97484090  0.12829230  0.01484854    -0.24500
loop_ 
_geom_bond_atom_site_label_1 
_geom_bond_atom_site_label_2 
_geom_bond_distance 
_geom_bond_site_symmetry_2 
_ccdc_geom_bond_type 
C1            C2   1.441   1_654  A
C1            C6   1.444   1_545  A
C1         C5222   1.536   1_554  S
C2            C3   1.431       .  A
C2         C5382   1.559       .  S
C3            C4   1.429   1_545  A
C3         C5245   1.513       .  S
C4            C5   1.424   1_556  A
C4         C5309   1.507       .  S
C5            C6   1.439   1_455  A
C5         C5286   1.500       .  S
C6         C5350   1.532       .  S
O7           C15   1.277       .  A
O7          Co27   2.029       .  S
O8           C16   1.279       .  A
O8          Co28   2.036       .  S
O9           C17   1.263       .  A
O9          Co29   1.988       .  S
O10          C18   1.253       .  A
O10         Co30   1.968       .  S
O11          C17   1.260       .  A
O11         Co28   2.008       .  S
O12          C18   1.269       .  A
O12         Co27   2.043       .  S
O13          C16   1.257       .  A
O13         Co30   1.951   1_655  S
O14          C15   1.265   1_655  A
O14         Co29   1.959       .  S
C15        C5021   1.479       .  S
C16        C5053   1.475       .  S
C17        C5181   1.497       .  S
C18        C5117   1.505       .  S
O19          C32   1.259       .  A
O19         Co27   1.950       .  S
O20          C33   1.264       .  A
O20         Co28   1.961       .  S
O21          C34   1.268       .  A
O21         Co29   2.041       .  S
O22          C35   1.267       .  A
O22         Co30   2.044       .  S
O23          C35   1.259   1_655  A
O23         Co28   1.974       .  S
O24          C34   1.261       .  A
O24         Co27   1.984   1_655  S
O25          C32   1.279       .  A
O25         Co30   2.033       .  S
O26          C33   1.278       .  A
O26         Co29   2.036       .  S
Co27         O31   2.108   1_455  S
Co28         O31   2.101       .  S
Co29         O31   2.112       .  S
Co30         O31   2.114   1_455  S
C32        C4989   1.491       .  S
C33        C5094   1.470       .  S
C34        C5373   1.512       .  S
C35        C5149   1.494       .  S
O36          C44   1.282       .  A
O36         Co56   2.063       .  S
O37          C45   1.276       .  A
O37         Co57   2.040       .  S
O38          C46   1.255       .  A
O38         Co58   1.974       .  S
O39          C47   1.261       .  A
O39         Co59   1.976       .  S
O40          C46   1.267       .  A
O40         Co57   2.039       .  S
O41          C47   1.263       .  A
O41         Co56   2.013       .  S
O42          C45   1.265       .  A
O42         Co59   1.960   1_565  S
O43          C44   1.260       .  A
O43         Co58   1.954   1_545  S
C44        C4797   1.489       .  S
C45        C4838   1.500       .  S
C46        C4893   1.494       .  S
C47        C4925   1.505       .  S
O48          C61   1.261       .  A
O48         Co56   1.959       .  S
O49          C62   1.259       .  A
O49         Co57   1.951       .  S
O50          C63   1.268       .  A
O50         Co58   2.043       .  S
O51          C64   1.265       .  A
O51         Co59   2.033       .  S
O52          C64   1.260   1_565  A
O52         Co57   1.986       .  S
O53          C63   1.254   1_545  A
O53         Co56   1.974       .  S
O54          C61   1.276       .  A
O54         Co59   2.024       .  S
O55          C62   1.277       .  A
O55         Co58   2.040       .  S
Co56         O60   2.109       .  S
Co57         O60   2.111   1_565  S
Co58         O60   2.115   1_565  S
Co59         O60   2.118       .  S
C61        C4765   1.464       .  S
C62        C4861   1.475       .  S
C63        C5341   1.512       .  S
C64        C4957   1.500       .  S
C65          C66   1.434   1_565  A
C65          C70   1.438       .  A
C65        C4605   1.538       .  S
C66          C67   1.423   1_655  A
C66        C4966   1.513       .  S
C67          C68   1.424       .  A
C67        C4701   1.508       .  S
C68          C69   1.428   1_545  A
C68        C4637   1.495       .  S
C69          C70   1.435   1_455  A
C69        C4678   1.518       .  S
C70        C4733   1.543       .  S
O71          C79   1.277       .  A
O71         Co91   2.042       .  S
O72          C80   1.280       .  A
O72         Co92   2.050       .  S
O73          C81   1.265       .  A
O73         Co93   1.990       .  S
O74          C82   1.262       .  A
O74         Co94   1.982       .  S
O75          C81   1.263       .  A
O75         Co92   2.020       .  S
O76          C82   1.265       .  A
O76         Co91   2.032       .  S
O77          C80   1.257   1_455  A
O77         Co94   1.949       .  S
O78          C79   1.262   1_655  A
O78         Co93   1.965       .  S
C79        C4390   1.478       .  S
C80        C4422   1.472       .  S
C81        C4573   1.502       .  S
C82        C4509   1.501       .  S
O83          C96   1.260       .  A
O83         Co91   1.955       .  S
O84          C97   1.264       .  A
O84         Co92   1.968       .  S
O85          C98   1.270       .  A
O85         Co93   2.050       .  S
O86          C99   1.271       .  A
O86         Co94   2.050       .  S
O87          C99   1.255   1_655  A
O87         Co92   1.975       .  S
O88          C98   1.254       .  A
O88         Co91   1.960   1_655  S
O89          C96   1.272       .  A
O89         Co94   2.025       .  S
O90          C97   1.274       .  A
O90         Co93   2.029       .  S
Co91         O95   2.101   1_455  S
Co92         O95   2.109       .  S
Co93         O95   2.121       .  S
Co94         O95   2.116   1_455  S
C96        C4445   1.465       .  S
C97        C4477   1.472       .  S
C98        C4742   1.501       .  S
C99        C4541   1.514       .  S
O100        C108   1.279       .  A
O100       Co120   2.050       .  S
O101        C109   1.274       .  A
O101       Co121   2.021       .  S
O102        C110   1.256       .  A
O102       Co122   1.971       .  S
O103        C111   1.264       .  A
O103       Co123   1.984       .  S
O104        C110   1.266       .  A
O104       Co121   2.033       .  S
O105        C111   1.262       .  A
O105       Co120   2.019       .  S
O106        C109   1.259   1_554  A
O106       Co123   1.962       .  S
O107        C108   1.260   1_556  A
O107       Co122   1.953       .  S
C108       C4157   1.471       .  S
C109       C4189   1.468       .  S
C110       C4285   1.505       .  S
C111       C4317   1.497       .  S
O112        C125   1.266       .  A
O112       Co120   1.975       .  S
O113        C126   1.262       .  A
O113       Co121   1.960       .  S
O114        C127   1.265       .  A
O114       Co122   2.028       .  S
O115        C128   1.270       .  A
O115       Co123   2.053       .  S
O116        C128   1.260   1_556  A
O116       Co121   1.978       .  S
O117        C127   1.258       .  A
O117       Co120   1.972   1_556  S
O118        C125   1.276       .  A
O118       Co123   2.022       .  S
O119        C126   1.275       .  A
O119       Co122   2.032       .  S
Co120       O124   2.121   1_554  S
Co121       O124   2.110       .  S
Co122       O124   2.112       .  S
Co123       O124   2.118   1_554  S
C125       C4221   1.481       .  S
C126       C4253   1.471       .  S
C127       C5318   1.494       .  S
C128       C4358   1.506       .  S
O129        C137   1.270       .  A
O129       Co149   1.977   1_655  S
O130        C138   1.255       .  A
O130       Co150   1.947   1_455  S
O131        C139   1.271       .  A
O131       Co151   2.032       .  S
O132        C140   1.270       .  A
O132       Co152   2.043       .  S
O133        C139   1.258       .  A
O133       Co150   1.982       .  S
O134        C140   1.268       .  A
O134       Co149   1.996       .  S
O135        C138   1.273       .  A
O135       Co152   2.014       .  S
O136        C137   1.269       .  A
O136       Co151   2.016       .  S
C137       C4870   1.488       .  S
C138       C4029   1.479       .  S
C139       C4093   1.503       .  S
C140       C4134   1.505       .  S
O141        C154   1.274       .  A
O141       Co149   2.020       .  S
O142        C155   1.275       .  A
O142       Co150   2.030       .  S
O143        C156   1.264   1_655  A
O143       Co151   1.990       .  S
O144        C157   1.264   1_455  A
O144       Co152   1.989       .  S
O145        C157   1.271       .  A
O145       Co150   2.046       .  S
O146        C156   1.268       .  A
O146       Co149   2.029       .  S
O147        C154   1.259       .  A
O147       Co152   1.956       .  S
O148        C155   1.258       .  A
O148       Co151   1.950       .  S
Co149       O153   2.110       .  S
Co150       O153   2.115   1_655  S
Co151       O153   2.095   1_655  S
Co152       O153   2.108       .  S
C154       C4166   1.484       .  S
C155       C3997   1.479       .  S
C156       C5277   1.490       .  S
C157       C4061   1.507       .  S
C158        C159   1.425       .  A
C158        C163   1.429       .  A
C158       C3942   1.502       .  S
C159        C160   1.420       .  A
C159       C4125   1.508       .  S
C160        C161   1.429       .  A
C160       C4326   1.520       .  S
C161        C162   1.435       .  A
C161       C3901   1.493       .  S
C162        C163   1.433       .  A
C162       C3869   1.521       .  S
C163       C3965   1.513       .  S
O164        C172   1.271       .  A
O164       Co184   1.975       .  S
O165        C173   1.269       .  A
O165       Co185   1.965       .  S
O166        C174   1.270       .  A
O166       Co186   2.035       .  S
O167        C175   1.270       .  A
O167       Co187   2.017       .  S
O168        C174   1.265       .  A
O168       Co185   1.987       .  S
O169        C175   1.270       .  A
O169       Co184   2.003       .  S
O170        C173   1.269       .  A
O170       Co187   2.007       .  S
O171        C172   1.268       .  A
O171       Co186   2.007       .  S
C172       C4454   1.485       .  S
C173       C3741   1.483       .  S
C174       C3837   1.495       .  S
C175       C3974   1.506       .  S
O176        C189   1.271       .  A
O176       Co184   2.022       .  S
O177        C190   1.272       .  A
O177       Co185   2.016       .  S
O178        C191   1.260       .  A
O178       Co186   1.970       .  S
O179        C192   1.265       .  A
O179       Co187   1.986       .  S
O180        C192   1.268       .  A
O180       Co185   2.011       .  S
O181        C191   1.271       .  A
O181       Co184   2.031       .  S
O182        C189   1.266       .  A
O182       Co187   1.954       .  S
O183        C190   1.256       .  A
O183       Co186   1.944       .  S
Co184       O188   2.109       .  S
Co185       O188   2.100       .  S
Co186       O188   2.099       .  S
Co187       O188   2.096       .  S
C189       C3677   1.487       .  S
C190       C3718   1.468       .  S
C191       C3805   1.489       .  S
C192       C3773   1.496       .  S
C193        C194   1.438       .  A
C193        C198   1.442       .  A
C193       C3581   1.515       .  S
C194        C195   1.428       .  A
C194       C4518   1.518       .  S
C195        C196   1.431       .  A
C195       C3846   1.513       .  S
C196        C197   1.430       .  A
C196       C3613   1.523       .  S
C197        C198   1.439       .  A
C197       C3645   1.514       .  S
C198       C4294   1.523       .  S
O199        C207   1.268       .  A
O199       Co219   2.019       .  S
O200        C208   1.270       .  A
O200       Co220   2.031       .  S
O201        C209   1.267       .  A
O201       Co221   1.991       .  S
O202        C210   1.267       .  A
O202       Co222   1.985       .  S
O203        C209   1.270       .  A
O203       Co220   2.012       .  S
O204        C210   1.271       .  A
O204       Co219   2.013       .  S
O205        C208   1.262       .  A
O205       Co222   1.962       .  S
O206        C207   1.267       .  A
O206       Co221   1.967       .  S
C207       C4198   1.485       .  S
C208       C3421   1.498       .  S
C209       C3485   1.500       .  S
C210       C3549   1.491       .  S
O211        C224   1.274       .  A
O211       Co219   1.990       .  S
O212        C225   1.263       .  A
O212       Co220   1.959       .  S
O213        C226   1.271       .  A
O213       Co221   2.030       .  S
O214        C227   1.276       .  A
O214       Co222   2.049       .  S
O215        C227   1.259       .  A
O215       Co220   1.967       .  S
O216        C226   1.271       .  A
O216       Co219   1.994       .  S
O217        C224   1.260       .  A
O217       Co222   1.985       .  S
O218        C225   1.268       .  A
O218       Co221   2.016       .  S
Co219       O223   2.105       .  S
Co220       O223   2.090       .  S
Co221       O223   2.102       .  S
Co222       O223   2.101       .  S
C224       C3389   1.487       .  S
C225       C3453   1.481       .  S
C226       C3654   1.499       .  S
C227       C3517   1.489       .  S
C228        C229   1.435       .  A
C228        C233   1.431       .  A
C228       C3334   1.522       .  S
C229        C230   1.432       .  A
C229       C3357   1.510       .  S
C230        C231   1.430       .  A
C230       C5190   1.513       .  S
C231        C232   1.423       .  A
C231       C3270   1.504       .  S
C232        C233   1.427       .  A
C232       C3229   1.516       .  S
C233       C3293   1.496       .  S
O234        C242   1.267       .  A
O234       Co254   2.003       .  S
O235        C243   1.273       .  A
O235       Co255   2.012       .  S
O236        C244   1.259       .  A
O236       Co256   1.973       .  S
O237        C245   1.260       .  A
O237       Co257   1.983       .  S
O238        C244   1.272       .  A
O238       Co255   2.033       .  S
O239        C245   1.271       .  A
O239       Co254   2.033       .  S
O240        C243   1.262       .  A
O240       Co257   1.956       .  S
O241        C242   1.272       .  A
O241       Co256   1.982       .  S
C242       C5062   1.496       .  S
C243       C4413   1.473       .  S
C244       C3133   1.492       .  S
C245       C3174   1.500       .  S
O246        C259   1.262       .  A
O246       Co254   1.955       .  S
O247        C260   1.262       .  A
O247       Co255   1.965       .  S
O248        C261   1.258       .  A
O248       Co256   1.993       .  S
O249        C262   1.268       .  A
O249       Co257   2.036       .  S
O250        C262   1.266       .  A
O250       Co255   1.985       .  S
O251        C261   1.267       .  A
O251       Co254   1.986       .  S
O252        C259   1.275       .  A
O252       Co257   2.020       .  S
O253        C260   1.281       .  A
O253       Co256   2.051       .  S
Co254       O258   2.104       .  S
Co255       O258   2.103       .  S
Co256       O258   2.103       .  S
Co257       O258   2.108       .  S
C259       C3101   1.476       .  S
C260       C3069   1.485       .  S
C261       C3366   1.504       .  S
C262       C3197   1.505       .  S
O263        C271   1.253       .  A
O263       Co283   1.938   1_655  S
O264        C272   1.269       .  A
O264       Co284   1.971   1_455  S
O265        C273   1.265       .  A
O265       Co285   1.995       .  S
O266        C274   1.271       .  A
O266       Co286   2.049       .  S
O267        C273   1.267       .  A
O267       Co284   1.994       .  S
O268        C274   1.257       .  A
O268       Co283   1.972       .  S
O269        C272   1.271       .  A
O269       Co286   2.019       .  S
O270        C271   1.278       .  A
O270       Co285   2.037       .  S
C271       C4774   1.485       .  S
C272       C2941   1.483       .  S
C273       C3005   1.495       .  S
C274       C3037   1.491       .  S
O275        C288   1.273       .  A
O275       Co283   2.008       .  S
O276        C289   1.273       .  A
O276       Co284   2.018       .  S
O277        C290   1.265       .  A
O277       Co285   1.992       .  S
O278        C291   1.266       .  A
O278       Co286   1.996       .  S
O279        C291   1.268   1_655  A
O279       Co284   2.031       .  S
O280        C290   1.268   1_455  A
O280       Co283   2.034       .  S
O281        C288   1.259       .  A
O281       Co286   1.952       .  S
O282        C289   1.272       .  A
O282       Co285   1.971       .  S
Co283       O287   2.090   1_455  S
Co284       O287   2.100       .  S
Co285       O287   2.100       .  S
Co286       O287   2.099   1_455  S
C288       C2909   1.469       .  S
C289       C2877   1.495       .  S
C290       C4710   1.495       .  S
C291       C2973   1.497       .  S
C292        C293   1.440       .  A
C292        C297   1.453       .  A
C292       C2717   1.547       .  S
C293        C294   1.428       .  A
C293       C3046   1.516       .  S
C294        C295   1.417       .  A
C294       C2749   1.507       .  S
C295        C296   1.441       .  A
C295       C2813   1.519       .  S
C296        C297   1.437       .  A
C296       C2781   1.536       .  S
C297       C2854   1.570       .  S
O298        C306   1.258       .  A
O298       Co318   1.960   1_556  S
O299        C307   1.263   1_556  A
O299       Co319   1.969       .  S
O300        C308   1.265       .  A
O300       Co320   2.031       .  S
O301        C309   1.271       .  A
O301       Co321   2.053       .  S
O302        C308   1.258       .  A
O302       Co319   1.963       .  S
O303        C309   1.251       .  A
O303       Co318   1.956       .  S
O304        C307   1.273       .  A
O304       Co321   2.011       .  S
O305        C306   1.277       .  A
O305       Co320   2.029       .  S
C306       C4998   1.475       .  S
C307       C2589   1.471       .  S
C308       C2685   1.491       .  S
C309       C2845   1.507       .  S
O310        C323   1.279       .  A
O310       Co318   2.040       .  S
O311        C324   1.279       .  A
O311       Co319   2.040       .  S
O312        C325   1.264       .  A
O312       Co320   1.983   1_554  S
O313        C326   1.267       .  A
O313       Co321   1.989   1_556  S
O314        C326   1.265       .  A
O314       Co319   2.027       .  S
O315        C325   1.265       .  A
O315       Co318   2.026       .  S
O316        C323   1.260       .  A
O316       Co321   1.955       .  S
O317        C324   1.263       .  A
O317       Co320   1.967       .  S
Co318       O322   2.105   1_554  S
Co319       O322   2.109       .  S
Co320       O322   2.120       .  S
Co321       O322   2.119   1_554  S
C323       C2557   1.485       .  S
C324       C2534   1.485       .  S
C325       C2630   1.497       .  S
C326       C2653   1.505       .  S
C327        C328   1.424       .  A
C327        C332   1.422       .  A
C327       C2397   1.504       .  S
C328        C329   1.429       .  A
C328       C2438   1.506       .  S
C329        C330   1.436       .  A
C329       C5126   1.513       .  S
C330        C331   1.436       .  A
C330       C2694   1.513       .  S
C331        C332   1.425       .  A
C331       C2461   1.511       .  S
C332       C2493   1.503       .  S
O333        C341   1.276       .  A
O333       Co353   2.044       .  S
O334        C342   1.278       .  A
O334       Co354   2.039       .  S
O335        C343   1.256       .  A
O335       Co355   1.969       .  S
O336        C344   1.249       .  A
O336       Co356   1.966       .  S
O337        C343   1.264       .  A
O337       Co354   2.028       .  S
O338        C344   1.266       .  A
O338       Co353   2.034       .  S
O339        C342   1.257       .  A
O339       Co356   1.954       .  S
O340        C341   1.259       .  A
O340       Co355   1.957       .  S
C341       C2214   1.476       .  S
C342       C2278   1.474       .  S
C343       C2365   1.486       .  S
C344       C2333   1.504       .  S
O345        C358   1.259       .  A
O345       Co353   1.959       .  S
O346        C359   1.262       .  A
O346       Co354   1.966       .  S
O347        C360   1.264       .  A
O347       Co355   2.038       .  S
O348        C361   1.265       .  A
O348       Co356   2.033       .  S
O349        C361   1.260       .  A
O349       Co354   1.980       .  S
O350        C360   1.256       .  A
O350       Co353   1.976       .  S
O351        C358   1.283       .  A
O351       Co356   2.064       .  S
O352        C359   1.277       .  A
O352       Co355   2.030       .  S
Co353       O357   2.105       .  S
Co354       O357   2.114       .  S
Co355       O357   2.105       .  S
Co356       O357   2.107       .  S
C358       C2301   1.491       .  S
C359       C2246   1.497       .  S
C360       C3302   1.490       .  S
C361       C2502   1.493       .  S
O362        C370   1.266       .  A
O362       Co382   1.967   1_565  S
O363        C371   1.279       .  A
O363       Co383   1.990   1_545  S
O364        C372   1.263       .  A
O364       Co384   2.025       .  S
O365        C373   1.268       .  A
O365       Co385   2.052       .  S
O366        C372   1.258       .  A
O366       Co383   1.977       .  S
O367        C373   1.250       .  A
O367       Co382   1.964       .  S
O368        C371   1.272       .  A
O368       Co385   2.014       .  S
O369        C370   1.280       .  A
O369       Co384   2.026       .  S
C370       C4230   1.497       .  S
C371       C2109   1.487       .  S
C372       C3910   1.485       .  S
C373       C2822   1.494       .  S
O374        C387   1.286       .  A
O374       Co382   2.064       .  S
O375        C388   1.290       .  A
O375       Co383   2.076       .  S
O376        C389   1.268   1_565  A
O376       Co384   2.001       .  S
O377        C390   1.269   1_545  A
O377       Co385   2.007       .  S
O378        C390   1.253       .  A
O378       Co383   1.987       .  S
O379        C389   1.255       .  A
O379       Co382   1.999       .  S
O380        C387   1.258       .  A
O380       Co385   1.943       .  S
O381        C388   1.263       .  A
O381       Co384   1.955       .  S
Co382       O386   2.097   1_545  S
Co383       O386   2.093       .  S
Co384       O386   2.105       .  S
Co385       O386   2.110   1_545  S
C387       C2077   1.475       .  S
C388       C2045   1.498       .  S
C389       C2150   1.496       .  S
C390       C2173   1.495       .  S
C391        C392   1.420       .  A
C391        C396   1.421       .  A
C391       C2374   1.512       .  S
C392        C393   1.418   1_545  A
C392       C1949   1.485       .  S
C393        C394   1.426       .  A
C393       C2182   1.507       .  S
C394        C395   1.435       .  A
C394       C2013   1.524       .  S
C395        C396   1.434   1_565  A
C395       C1917   1.500       .  S
C396       C1981   1.508       .  S
O397        C405   1.260       .  A
O397       Co417   1.954       .  S
O398        C406   1.262       .  A
O398       Co418   1.960       .  S
O399        C407   1.266       .  A
O399       Co419   2.021       .  S
O400        C408   1.264       .  A
O400       Co420   2.015       .  S
O401        C407   1.270       .  A
O401       Co418   2.003       .  S
O402        C408   1.256       .  A
O402       Co417   1.967       .  S
O403        C406   1.277       .  A
O403       Co420   2.046       .  S
O404        C405   1.276       .  A
O404       Co419   2.033       .  S
C405       C3750   1.465       .  S
C406       C1821   1.475       .  S
C407       C1853   1.520       .  S
C408       C2022   1.485       .  S
O409        C422   1.275       .  A
O409       Co417   2.041       .  S
O410        C423   1.264       .  A
O410       Co418   1.992       .  S
O411        C424   1.267       .  A
O411       Co419   1.990       .  S
O412        C425   1.256       .  A
O412       Co420   1.964       .  S
O413        C425   1.273       .  A
O413       Co418   2.056       .  S
O414        C424   1.267       .  A
O414       Co417   2.028       .  S
O415        C422   1.266       .  A
O415       Co420   1.978       .  S
O416        C423   1.273       .  A
O416       Co419   1.981       .  S
Co417       O421   2.102       .  S
Co418       O421   2.117       .  S
Co419       O421   2.104       .  S
Co420       O421   2.109       .  S
C422       C2054   1.485       .  S
C423       C1789   1.487       .  S
C424       C3878   1.507       .  S
C425       C1894   1.505       .  S
O426        C434   1.258       .  A
O426       Co446   1.948       .  S
O427        C435   1.259       .  A
O427       Co447   1.966       .  S
O428        C436   1.263       .  A
O428       Co448   2.015       .  S
O429        C437   1.263       .  A
O429       Co449   2.035       .  S
O430        C436   1.258       .  A
O430       Co447   1.979   1_565  S
O431        C437   1.257   1_565  A
O431       Co446   1.975       .  S
O432        C435   1.274       .  A
O432       Co449   2.033       .  S
O433        C434   1.277       .  A
O433       Co448   2.046       .  S
C434       C3398   1.467       .  S
C435       C2237   1.476       .  S
C436       C1757   1.497       .  S
C437       C1990   1.495       .  S
O438        C451   1.273       .  A
O438       Co446   2.028       .  S
O439        C452   1.275       .  A
O439       Co447   2.034       .  S
O440        C453   1.259       .  A
O440       Co448   1.980       .  S
O441        C454   1.256       .  A
O441       Co449   1.969       .  S
O442        C454   1.270       .  A
O442       Co447   2.055       .  S
O443        C453   1.268       .  A
O443       Co446   2.036       .  S
O444        C451   1.258   1_545  A
O444       Co449   1.955       .  S
O445        C452   1.266       .  A
O445       Co448   1.971   1_545  S
Co446       O450   2.109       .  S
Co447       O450   2.122   1_545  S
Co448       O450   2.117       .  S
Co449       O450   2.109   1_545  S
C451       C1693   1.463       .  S
C452       C1661   1.476       .  S
C453       C1725   1.506       .  S
C454       C3238   1.504       .  S
C455        C456   1.430       .  A
C455        C460   1.435   1_565  A
C455       C1766   1.519       .  S
C456        C457   1.426   1_556  A
C456       C3558   1.500       .  S
C457        C458   1.417   1_565  A
C457       C4349   1.514       .  S
C458        C459   1.433       .  A
C458       C2141   1.504       .  S
C459        C460   1.436   1_554  A
C459       C1638   1.511       .  S
C460       C1597   1.515       .  S
O461        C469   1.266       .  A
O461       Co481   1.966       .  S
O462        C470   1.263       .  A
O462       Co482   1.964       .  S
O463        C471   1.267       .  A
O463       Co483   2.050       .  S
O464        C472   1.264       .  A
O464       Co484   2.021       .  S
O465        C471   1.257       .  A
O465       Co482   1.978       .  S
O466        C472   1.265       .  A
O466       Co481   1.988       .  S
O467        C470   1.273       .  A
O467       Co484   2.013       .  S
O468        C469   1.278       .  A
O468       Co483   2.029       .  S
C469       C2598   1.497       .  S
C470       C1510   1.469       .  S
C471       C1533   1.496       .  S
C472       C1629   1.500       .  S
O473        C486   1.277       .  A
O473       Co481   2.031       .  S
O474        C487   1.279       .  A
O474       Co482   2.048       .  S
O475        C488   1.257       .  A
O475       Co483   1.970       .  S
O476        C489   1.262       .  A
O476       Co484   1.979       .  S
O477        C489   1.263       .  A
O477       Co482   2.017       .  S
O478        C488   1.263       .  A
O478       Co481   2.024       .  S
O479        C486   1.263       .  A
O479       Co484   1.955       .  S
O480        C487   1.254       .  A
O480       Co483   1.948       .  S
Co481       O485   2.110       .  S
Co482       O485   2.111       .  S
Co483       O485   2.100       .  S
Co484       O485   2.103       .  S
C486       C2086   1.474       .  S
C487       C1469   1.470       .  S
C488       C2790   1.503       .  S
C489       C1565   1.489       .  S
O490        C498   1.277       .  A
O490       Co510   2.039       .  S
O491        C499   1.273       .  A
O491       Co511   2.028       .  S
O492        C500   1.259       .  A
O492       Co512   1.980       .  S
O493        C501   1.273       .  A
O493       Co513   2.005       .  S
O494        C500   1.270       .  A
O494       Co511   2.048       .  S
O495        C501   1.262       .  A
O495       Co510   2.011       .  S
O496        C499   1.274       .  A
O496       Co513   1.987       .  S
O497        C498   1.251       .  A
O497       Co512   1.938       .  S
C498       C2918   1.454       .  S
C499       C2269   1.503       .  S
C500       C2406   1.496       .  S
C501       C2758   1.503       .  S
O502        C515   1.257       .  A
O502       Co510   1.948       .  S
O503        C516   1.262       .  A
O503       Co511   1.950       .  S
O504        C517   1.271       .  A
O504       Co512   2.050       .  S
O505        C518   1.267       .  A
O505       Co513   2.026       .  S
O506        C518   1.259       .  A
O506       Co511   1.979       .  S
O507        C517   1.251       .  A
O507       Co510   1.961       .  S
O508        C515   1.279       .  A
O508       Co513   2.035       .  S
O509        C516   1.265       .  A
O509       Co512   2.009       .  S
Co510       O514   2.102       .  S
Co511       O514   2.091       .  S
Co512       O514   2.099       .  S
Co513       O514   2.107       .  S
C515       C2118   1.479       .  S
C516       C1437   1.468       .  S
C517       C4646   1.492       .  S
C518       C1958   1.481       .  S
C519        C520   1.428       .  A
C519        C524   1.432       .  A
C519       C4902   1.513       .  S
C520        C521   1.433       .  A
C520       C1341   1.510       .  S
C521        C522   1.435       .  A
C521       C1885   1.520       .  S
C522        C523   1.435       .  A
C522       C1405   1.506       .  S
C523        C524   1.431       .  A
C523       C1382   1.525       .  S
C524       C4102   1.509       .  S
O525        C533   1.273       .  A
O525       Co545   2.006       .  S
O526        C534   1.273       .  A
O526       Co546   2.020       .  S
O527        C535   1.266       .  A
O527       Co547   1.984       .  S
O528        C536   1.270       .  A
O528       Co548   1.990       .  S
O529        C535   1.272       .  A
O529       Co546   2.036       .  S
O530        C536   1.267       .  A
O530       Co545   2.016       .  S
O531        C534   1.262       .  A
O531       Co548   1.963       .  S
O532        C533   1.261       .  A
O532       Co547   1.960       .  S
C533       C1798   1.485       .  S
C534       C1478   1.485       .  S
C535       C1254   1.502       .  S
C536       C1277   1.489       .  S
O537        C550   1.274       .  A
O537       Co545   1.991       .  S
O538        C551   1.263       .  A
O538       Co546   1.963       .  S
O539        C552   1.273       .  A
O539       Co547   2.021       .  S
O540        C553   1.274       .  A
O540       Co548   2.029       .  S
O541        C553   1.259       .  A
O541       Co546   1.968       .  S
O542        C552   1.268       .  A
O542       Co545   1.985       .  S
O543        C550   1.267       .  A
O543       Co548   2.014       .  S
O544        C551   1.265       .  A
O544       Co547   2.009       .  S
Co545       O549   2.112       .  S
Co546       O549   2.105       .  S
Co547       O549   2.110       .  S
Co548       O549   2.097       .  S
C550       C1190   1.501       .  S
C551       C1213   1.481       .  S
C552       C1414   1.501       .  S
C553       C1309   1.484       .  S
C554        C555   1.437       .  A
C554        C559   1.430       .  A
C554       C3014   1.505       .  S
C555        C556   1.436       .  A
C555       C4934   1.515       .  S
C556        C557   1.424       .  A
C556       C1117   1.507       .  S
C557        C558   1.417       .  A
C557       C1574   1.502       .  S
C558        C559   1.418       .  A
C558       C1318   1.503       .  S
C559       C1149   1.506       .  S
C560        C561   1.435       .  A
C560        C565   1.431       .  A
C560       C4582   1.506       .  S
C561        C562   1.434       .  A
C561       C3206   1.520       .  S
C562        C563   1.437       .  A
C562       C1085   1.525       .  S
C563        C564   1.439       .  A
C563       C3526   1.508       .  S
C564        C565   1.430       .  A
C564       C1734   1.524       .  S
C565       C1053   1.521       .  S
O566        C574   1.269       .  A
O566       Co586   1.971   1_565  S
O567        C575   1.258   1_565  A
O567       Co587   1.944       .  S
O568        C576   1.270       .  A
O568       Co588   2.024       .  S
O569        C577   1.270       .  A
O569       Co589   2.033       .  S
O570        C576   1.264       .  A
O570       Co587   1.989       .  S
O571        C577   1.257       .  A
O571       Co586   1.972       .  S
O572        C575   1.272       .  A
O572       Co589   2.020       .  S
O573        C574   1.269       .  A
O573       Co588   2.010       .  S
C574       C4262   1.492       .  S
C575       C1446   1.457       .  S
C576       C3590   1.505       .  S
C577       C2429   1.498       .  S
O578        C591   1.280       .  A
O578       Co586   2.060       .  S
O579        C592   1.271       .  A
O579       Co587   2.007       .  S
O580        C593   1.265   1_565  A
O580       Co588   1.972       .  S
O581        C594   1.255   1_545  A
O581       Co589   1.967       .  S
O582        C594   1.272       .  A
O582       Co587   2.048       .  S
O583        C593   1.259       .  A
O583       Co586   1.990       .  S
O584        C591   1.257       .  A
O584       Co589   1.952       .  S
O585        C592   1.266       .  A
O585       Co588   1.965       .  S
Co586       O590   2.110   1_545  S
Co587       O590   2.102       .  S
Co588       O590   2.096       .  S
Co589       O590   2.101   1_545  S
C591       C5030   1.476       .  S
C592       C4381   1.478       .  S
C593       C5254   1.476       .  S
C594       C4669   1.492       .  S
O595        C603   1.262       .  A
O595       Co615   1.963       .  S
O596        C604   1.267       .  A
O596       Co616   1.967       .  S
O597        C605   1.267       .  A
O597       Co617   2.035       .  S
O598        C606   1.266       .  A
O598       Co618   2.009       .  S
O599        C605   1.262       .  A
O599       Co616   1.978       .  S
O600        C606   1.264       .  A
O600       Co615   1.998       .  S
O601        C604   1.280       .  A
O601       Co618   2.045       .  S
O602        C603   1.277       .  A
O602       Co617   2.028       .  S
C603       C3078   1.498       .  S
C604       C1181   1.487       .  S
C605       C1021   1.493       .  S
C606        C989   1.507       .  S
O607        C620   1.277       .  A
O607       Co615   2.020       .  S
O608        C621   1.277       .  A
O608       Co616   2.025       .  S
O609        C622   1.258       .  A
O609       Co617   1.979       .  S
O610        C623   1.262       .  A
O610       Co618   1.982       .  S
O611        C623   1.261       .  A
O611       Co616   2.017       .  S
O612        C622   1.272       .  A
O612       Co615   2.063       .  S
O613        C620   1.266       .  A
O613       Co618   1.967       .  S
O614        C621   1.259       .  A
O614       Co617   1.958       .  S
Co615       O619   2.117       .  S
Co616       O619   2.110       .  S
Co617       O619   2.110       .  S
Co618       O619   2.101       .  S
C620       C2205   1.489       .  S
C621       C2886   1.473       .  S
C622       C3325   1.511       .  S
C623       C1158   1.488       .  S
C624        C625   1.420       .  A
C624        C629   1.420       .  A
C624       C3814   1.496       .  S
C625        C626   1.425   1_455  A
C625       C4550   1.512       .  S
C626        C627   1.429       .  A
C626       C3142   1.497       .  S
C627        C628   1.427       .  A
C627       C1030   1.508       .  S
C628        C629   1.422   1_655  A
C628       C2982   1.506       .  S
C629        C957   1.498       .  S
O630        C638   1.276       .  A
O630       Co650   2.034       .  S
O631        C639   1.275       .  A
O631       Co651   2.006       .  S
O632        C640   1.262       .  A
O632       Co652   1.981       .  S
O633        C641   1.263       .  A
O633       Co653   1.992       .  S
O634        C640   1.270       .  A
O634       Co651   2.049       .  S
O635        C641   1.265       .  A
O635       Co650   2.021       .  S
O636        C639   1.266   1_554  A
O636       Co653   1.968       .  S
O637        C638   1.256   1_556  A
O637       Co652   1.946       .  S
C638       C4006   1.462       .  S
C639       C3430   1.476       .  S
C640       C1094   1.508       .  S
C641       C1373   1.507       .  S
O642        C655   1.260       .  A
O642       Co650   1.947       .  S
O643        C656   1.260       .  A
O643       Co651   1.957       .  S
O644        C657   1.266       .  A
O644       Co652   2.045       .  S
O645        C658   1.269       .  A
O645       Co653   2.030       .  S
O646        C658   1.262   1_556  A
O646       Co651   1.986       .  S
O647        C657   1.254   1_554  A
O647       Co650   1.970       .  S
O648        C655   1.277       .  A
O648       Co653   2.037       .  S
O649        C656   1.272       .  A
O649       Co652   2.007       .  S
Co650       O654   2.100       .  S
Co651       O654   2.111   1_556  S
Co652       O654   2.111   1_556  S
Co653       O654   2.115       .  S
C655       C1222   1.463       .  S
C656       C3110   1.467       .  S
C657        C893   1.491       .  S
C658        C934   1.517       .  S
C659        C660   1.437       .  A
C659        C664   1.437       .  A
C659        C870   1.523       .  S
C660        C661   1.435   1_556  A
C660       C3494   1.508       .  S
C661        C662   1.434       .  A
C661        C925   1.526       .  S
C662        C663   1.434       .  A
C662       C1245   1.509       .  S
C663        C664   1.429   1_554  A
C663       C1542   1.512       .  S
C664       C2662   1.524       .  S
O665        C673   1.272   1_554  A
O665       Co685   1.976       .  S
O666        C674   1.262       .  A
O666       Co686   1.954   1_554  S
O667        C675   1.267       .  A
O667       Co687   2.024       .  S
O668        C676   1.268       .  A
O668       Co688   2.044       .  S
O669        C675   1.262       .  A
O669       Co686   1.987       .  S
O670        C676   1.260       .  A
O670       Co685   1.982       .  S
O671        C674   1.278       .  A
O671       Co688   2.018       .  S
O672        C673   1.268       .  A
O672       Co687   2.002       .  S
C673       C5085   1.488       .  S
C674       C1501   1.487       .  S
C675       C3261   1.498       .  S
C676       C1126   1.499       .  S
O677        C690   1.284       .  A
O677       Co685   2.063       .  S
O678        C691   1.278       .  A
O678       Co686   2.031       .  S
O679        C692   1.264   1_556  A
O679       Co687   1.972       .  S
O680        C693   1.264   1_554  A
O680       Co688   1.993       .  S
O681        C693   1.266       .  A
O681       Co686   2.017       .  S
O682        C692   1.258       .  A
O682       Co685   2.002       .  S
O683        C690   1.263       .  A
O683       Co688   1.960       .  S
O684        C691   1.262       .  A
O684       Co687   1.948       .  S
Co685       O689   2.103       .  S
Co686       O689   2.107   1_556  S
Co687       O689   2.093   1_556  S
Co688       O689   2.107       .  S
C690       C4806   1.492       .  S
C691       C1670   1.478       .  S
C692       C5213   1.499       .  S
C693       C1606   1.504       .  S
O694        C702   1.266       .  A
O694       Co714   2.025       .  S
O695        C703   1.260       .  A
O695       Co715   1.998       .  S
O696        C704   1.254       .  A
O696       Co716   1.960       .  S
O697        C705   1.267       .  A
O697       Co717   1.981       .  S
O698        C704   1.279       .  A
O698       Co715   2.061       .  S
O699        C705   1.276       .  A
O699       Co714   2.055       .  S
O700        C703   1.272       .  A
O700       Co717   2.005       .  S
O701        C702   1.252       .  A
O701       Co716   1.954       .  S
C702       C3709   1.466       .  S
C703       C2525   1.505       .  S
C704       C2470   1.496       .  S
C705       C3622   1.515       .  S
O706        C719   1.259       .  A
O706       Co714   1.965       .  S
O707        C720   1.265       .  A
O707       Co715   1.977       .  S
O708        C721   1.277       .  A
O708       Co716   2.060       .  S
O709        C722   1.269       .  A
O709       Co717   2.019       .  S
O710        C722   1.275       .  A
O710       Co715   2.002       .  S
O711        C721   1.266       .  A
O711       Co714   1.987       .  S
O712        C719   1.272       .  A
O712       Co717   2.030       .  S
O713        C720   1.266       .  A
O713       Co716   2.021       .  S
Co714       O718   2.126       .  S
Co715       O718   2.125       .  S
Co716       O718   2.098       .  S
Co717       O718   2.118       .  S
C719       C3462   1.471       .  S
C720       C2310   1.506       .  S
C721        C829   1.521       .  S
C722        C861   1.515       .  S
O723        C731   1.280       .  A
O723       Co743   2.056       .  S
O724        C732   1.270       .  A
O724       Co744   2.012       .  S
O725        C733   1.260       .  A
O725       Co745   1.981       .  S
O726        C734   1.260       .  A
O726       Co746   1.965       .  S
O727        C733   1.267       .  A
O727       Co744   2.009       .  S
O728        C734   1.265       .  A
O728       Co743   2.026       .  S
O729        C732   1.254       .  A
O729       Co746   1.945       .  S
O730        C731   1.253       .  A
O730       Co745   1.949       .  S
C731       C4829   1.482       .  S
C732       C1702   1.468       .  S
C733       C1926   1.485       .  S
C734       C4614   1.497       .  S
O735        C748   1.267       .  A
O735       Co743   1.973       .  S
O736        C749   1.273       .  A
O736       Co744   1.979       .  S
O737        C750   1.275       .  A
O737       Co745   2.051       .  S
O738        C751   1.270       .  A
O738       Co746   2.041       .  S
O739        C751   1.268       .  A
O739       Co744   1.988       .  S
O740        C750   1.259       .  A
O740       Co743   1.977       .  S
O741        C748   1.268       .  A
O741       Co746   2.014       .  S
O742        C749   1.267       .  A
O742       Co745   2.007       .  S
Co743       O747   2.114       .  S
Co744       O747   2.110       .  S
Co745       O747   2.101       .  S
Co746       O747   2.101       .  S
C748       C4486   1.495       .  S
C749       C1830   1.496       .  S
C750       C1350   1.498       .  S
C751       C1062   1.496       .  S
O752        C760   1.261       .  A
O752       Co772   1.951       .  S
O753        C761   1.269       .  A
O753       Co773   1.967       .  S
O754        C762   1.262       .  A
O754       Co774   2.008       .  S
O755        C763   1.273       .  A
O755       Co775   2.073       .  S
O756        C762   1.274       .  A
O756       Co773   2.012       .  S
O757        C763   1.251       .  A
O757       Co772   1.963       .  S
O758        C761   1.274       .  A
O758       Co775   2.011       .  S
O759        C760   1.277       .  A
O759       Co774   2.010       .  S
C760       C4038   1.470       .  S
C761       C2950   1.472       .  S
C762        C806   1.518       .  S
C763        C966   1.499       .  S
O764        C777   1.281       .  A
O764       Co772   2.058       .  S
O765        C778   1.268       .  A
O765       Co773   2.003       .  S
O766        C779   1.268       .  A
O766       Co774   1.984       .  S
O767        C780   1.251       .  A
O767       Co775   1.959       .  S
O768        C780   1.268       .  A
O768       Co773   2.037       .  S
O769        C779   1.258       .  A
O769       Co772   1.997       .  S
O770        C777   1.248       .  A
O770       Co775   1.939       .  S
O771        C778   1.274       .  A
O771       Co774   1.981       .  S
Co772       O776   2.097       .  S
Co773       O776   2.112       .  S
Co774       O776   2.099       .  S
Co775       O776   2.098       .  S
C777       C3686   1.471       .  S
C778       C2566   1.494       .  S
C779       C3933   1.483       .  S
C780       C2726   1.500       .  S
C781        C782   1.433       .  A
C781        C786   1.430       .  A
C781        C838   1.534       .  S
C782        C783   1.440       .  A
C782       C3782   1.510       .  S
C783        C784   1.438       .  A
C783       C1862   1.524       .  S
C784        C785   1.432       .  A
C784       C1286   1.519       .  S
C785        C786   1.432       .  A
C785        C998   1.519       .  S
C786       C2342   1.502       .  S
C787        C788   1.424   1_655  A
C787        C792   1.429       .  A
C787       C3165   1.514       .  S
C788        C789   1.432   1_556  A
C788       C5158   1.511       .  S
C789        C790   1.435       .  A
C789       C2621   1.508       .  S
C790        C791   1.438   1_455  A
C790        C797   1.526       .  S
C791        C792   1.435   1_554  A
C791       C4070   1.512       .  S
C792        C902   1.511       .  S
C793        C794   1.399       .  A
C793        C798   1.408       .  A
C793        H803   1.085       .  S
C794        C795   1.421       .  A
C794        C799   1.509       .  S
C795        C796   1.418       .  A
C795        C800   1.519       .  S
C796        C797   1.411       .  A
C796        H801   1.079       .  S
C797        C798   1.431       .  A
C798        C802   1.514       .  S
C799        C804   1.422       .  A
C799        C808   1.398       .  A
C800        F816   1.381       .  S
C800        F817   1.383       .  S
C800        F818   1.384       .  S
C802        F813   1.384   1_455  S
C802        F814   1.382       .  S
C802        F815   1.370   1_455  S
C804        C805   1.416       .  A
C804        C809   1.517       .  S
C805        C806   1.408       .  A
C805        H810   1.082       .  S
C806        C807   1.437       .  A
C807        C808   1.413       .  A
C807        C811   1.524       .  S
C808        H812   1.081       .  S
C809        F822   1.384       .  S
C809        F823   1.382       .  S
C809        F824   1.383       .  S
C811        F819   1.385       .  S
C811        F820   1.380       .  S
C811        F821   1.384       .  S
C825        C826   1.407       .  A
C825        C830   1.420       .  A
C825        H835   1.083       .  S
C826        C827   1.427       .  A
C826        C831   1.518       .  S
C827        C828   1.421       .  A
C827        C832   1.519       .  S
C828        C829   1.411       .  A
C828        H833   1.084       .  S
C829        C830   1.423       .  A
C830        C834   1.511       .  S
C831        C836   1.420       .  A
C831        C840   1.404       .  A
C832        F848   1.384       .  S
C832        F849   1.381       .  S
C832        F850   1.383       .  S
C834        F845   1.385       .  S
C834        F846   1.380       .  S
C834        F847   1.379       .  S
C836        C837   1.421       .  A
C836        C841   1.517       .  S
C837        C838   1.414       .  A
C837        H842   1.082       .  S
C838        C839   1.429       .  A
C839        C840   1.417       .  A
C839        C843   1.509       .  S
C840        H844   1.085       .  S
C841        F854   1.385       .  S
C841        F855   1.383       .  S
C841        F856   1.380       .  S
C843        F851   1.384       .  S
C843        F852   1.370       .  S
C843        F853   1.382       .  S
C857        C858   1.401       .  A
C857        C862   1.411       .  A
C857        H867   1.079       .  S
C858        C859   1.429       .  A
C858        C863   1.518       .  S
C859        C860   1.417       .  A
C859        C864   1.519       .  S
C860        C861   1.408       .  A
C860        H865   1.084       .  S
C861        C862   1.433       .  A
C862        C866   1.524       .  S
C863        C868   1.429       .  A
C863        C872   1.403       .  A
C864        F880   1.383       .  S
C864        F881   1.383       .  S
C864        F882   1.383       .  S
C866        F877   1.384       .  S
C866        F878   1.385       .  S
C866        F879   1.382       .  S
C868        C869   1.418       .  A
C868        C873   1.521       .  S
C869        C870   1.410       .  A
C869        H874   1.078       .  S
C870        C871   1.424       .  A
C871        C872   1.409       .  A
C871        C875   1.514       .  S
C872        H876   1.082       .  S
C873        F886   1.385       .  S
C873        F887   1.382       .  S
C873        F888   1.383       .  S
C875        F883   1.373       .  S
C875        F884   1.382       .  S
C875        F885   1.386       .  S
C889        C890   1.401   1_554  A
C889        C894   1.410       .  A
C889        H899   1.083       .  S
C890        C891   1.420       .  A
C890        C895   1.500       .  S
C891        C892   1.414       .  A
C891        C896   1.513       .  S
C892        C893   1.402       .  A
C892        H897   1.083       .  S
C893        C894   1.422   1_556  A
C894        C898   1.515       .  S
C895        C900   1.418       .  A
C895        C904   1.401       .  A
C896        F912   1.385       .  S
C896        F913   1.383       .  S
C896        F914   1.377       .  S
C898        F909   1.385       .  S
C898        F910   1.382       .  S
C898        F911   1.377       .  S
C900        C901   1.414       .  A
C900        C905   1.519       .  S
C901        C902   1.406       .  A
C901        H906   1.078       .  S
C902        C903   1.425   1_556  A
C903        C904   1.412   1_554  A
C903        C907   1.519       .  S
C904        H908   1.083   1_556  S
C905        F918   1.385       .  S
C905        F919   1.382       .  S
C905        F920   1.381       .  S
C907        F915   1.385       .  S
C907        F916   1.380       .  S
C907        F917   1.375   1_554  S
C921        C922   1.407       .  A
C921        C926   1.415       .  A
C921        H931   1.082       .  S
C922        C923   1.424   1_554  A
C922        C927   1.519       .  S
C923        C924   1.415       .  A
C923        C928   1.521       .  S
C924        C925   1.410   1_556  A
C924        H929   1.081       .  S
C925        C926   1.427       .  A
C926        C930   1.514       .  S
C927        C932   1.423       .  A
C927        C936   1.410       .  A
C928        F944   1.380       .  S
C928        F945   1.383       .  S
C928        F946   1.385       .  S
C930        F941   1.383       .  S
C930        F942   1.381       .  S
C930        F943   1.375       .  S
C932        C933   1.412       .  A
C932        C937   1.524       .  S
C933        C934   1.412       .  A
C933        H938   1.082       .  S
C934        C935   1.427       .  A
C935        C936   1.421       .  A
C935        C939   1.522   1_554  S
C936        H940   1.079       .  S
C937        F950   1.384       .  S
C937        F951   1.381       .  S
C937        F952   1.384       .  S
C939        F947   1.385       .  S
C939        F948   1.380   1_556  S
C939        F949   1.384       .  S
C953        C954   1.398       .  A
C953        C958   1.406       .  A
C953        H963   1.085       .  S
C954        C955   1.417       .  A
C954        C959   1.493       .  S
C955        C956   1.413       .  A
C955        C960   1.517       .  S
C956        C957   1.406       .  A
C956        H961   1.080       .  S
C957        C958   1.425       .  A
C958        C962   1.519   1_455  S
C959        C964   1.416       .  A
C959        C968   1.399       .  A
C960        F976   1.383       .  S
C960        F977   1.382       .  S
C960        F978   1.384       .  S
C962        F973   1.383       .  S
C962        F974   1.383   1_655  S
C962        F975   1.377       .  S
C964        C965   1.415       .  A
C964        C969   1.517       .  S
C965        C966   1.406       .  A
C965        H970   1.079       .  S
C966        C967   1.424       .  A
C967        C968   1.408       .  A
C967        C971   1.516       .  S
C968        H972   1.084       .  S
C969        F982   1.384       .  S
C969        F983   1.383       .  S
C969        F984   1.382       .  S
C971        F979   1.385       .  S
C971        F980   1.382       .  S
C971        F981   1.370       .  S
C985        C986   1.410       .  A
C985        C990   1.419       .  A
C985        H995   1.080       .  S
C986        C987   1.423       .  A
C986        C991   1.512       .  S
C987        C988   1.409       .  A
C987        C992   1.525       .  S
C988        C989   1.410       .  A
C988        H993   1.082       .  S
C989        C990   1.421       .  A
C990        C994   1.518       .  S
C991        C996   1.423       .  A
C991       C1000   1.406       .  A
C992       F1008   1.380       .  S
C992       F1009   1.380       .  S
C992       F1010   1.383       .  S
C994       F1005   1.382       .  S
C994       F1006   1.385       .  S
C994       F1007   1.379       .  S
C996        C997   1.413       .  A
C996       C1001   1.522       .  S
C997        C998   1.407       .  A
C997       H1002   1.083       .  S
C998        C999   1.422       .  A
C999       C1000   1.414       .  A
C999       C1003   1.509       .  S
C1000      H1004   1.081       .  S
C1001      F1014   1.385       .  S
C1001      F1015   1.381       .  S
C1001      F1016   1.383       .  S
C1003      F1011   1.375       .  S
C1003      F1012   1.372       .  S
C1003      F1013   1.385       .  S
C1017      C1018   1.401       .  A
C1017      C1022   1.412       .  A
C1017      H1027   1.083       .  S
C1018      C1019   1.416       .  A
C1018      C1023   1.498       .  S
C1019      C1020   1.412       .  A
C1019      C1024   1.510       .  S
C1020      C1021   1.401       .  A
C1020      H1025   1.079       .  S
C1021      C1022   1.425       .  A
C1022      C1026   1.517       .  S
C1023      C1028   1.418       .  A
C1023      C1032   1.398       .  A
C1024      F1040   1.380       .  S
C1024      F1041   1.379       .  S
C1024      F1042   1.380       .  S
C1026      F1037   1.377       .  S
C1026      F1038   1.385       .  S
C1026      F1039   1.381       .  S
C1028      C1029   1.416       .  A
C1028      C1033   1.516       .  S
C1029      C1030   1.408       .  A
C1029      H1034   1.081       .  S
C1030      C1031   1.428       .  A
C1031      C1032   1.406       .  A
C1031      C1035   1.519       .  S
C1032      H1036   1.085       .  S
C1033      F1046   1.384       .  S
C1033      F1047   1.380       .  S
C1033      F1048   1.380       .  S
C1035      F1043   1.384       .  S
C1035      F1044   1.375       .  S
C1035      F1045   1.383       .  S
C1049      C1050   1.393       .  A
C1049      C1054   1.403       .  A
C1049      H1059   1.086       .  S
C1050      C1051   1.422       .  A
C1050      C1055   1.498       .  S
C1051      C1052   1.420       .  A
C1051      C1056   1.516       .  S
C1052      C1053   1.410       .  A
C1052      H1057   1.083       .  S
C1053      C1054   1.431       .  A
C1054      C1058   1.510       .  S
C1055      C1060   1.420       .  A
C1055      C1064   1.396       .  A
C1056      F1072   1.382       .  S
C1056      F1073   1.382       .  S
C1056      F1074   1.383       .  S
C1058      F1069   1.383       .  S
C1058      F1070   1.384       .  S
C1058      F1071   1.361       .  S
C1060      C1061   1.416       .  A
C1060      C1065   1.510       .  S
C1061      C1062   1.403       .  A
C1061      H1066   1.083       .  S
C1062      C1063   1.425       .  A
C1063      C1064   1.407       .  A
C1063      C1067   1.511       .  S
C1064      H1068   1.083       .  S
C1065      F1078   1.385       .  S
C1065      F1079   1.379       .  S
C1065      F1080   1.383       .  S
C1067      F1075   1.385       .  S
C1067      F1076   1.382       .  S
C1067      F1077   1.378       .  S
C1081      C1082   1.406       .  A
C1081      C1086   1.418       .  A
C1081      H1091   1.084       .  S
C1082      C1083   1.421       .  A
C1082      C1087   1.517       .  S
C1083      C1084   1.417       .  A
C1083      C1088   1.519       .  S
C1084      C1085   1.410       .  A
C1084      H1089   1.083       .  S
C1085      C1086   1.427       .  A
C1086      C1090   1.512       .  S
C1087      C1092   1.423       .  A
C1087      C1096   1.405       .  A
C1088      F1104   1.381       .  S
C1088      F1105   1.383       .  S
C1088      F1106   1.384       .  S
C1090      F1101   1.383       .  S
C1090      F1102   1.379       .  S
C1090      F1103   1.372       .  S
C1092      C1093   1.421       .  A
C1092      C1097   1.517       .  S
C1093      C1094   1.406       .  A
C1093      H1098   1.083       .  S
C1094      C1095   1.424       .  A
C1095      C1096   1.416       .  A
C1095      C1099   1.517       .  S
C1096      H1100   1.082       .  S
C1097      F1110   1.383       .  S
C1097      F1111   1.381       .  S
C1097      F1112   1.383       .  S
C1099      F1107   1.378       .  S
C1099      F1108   1.382       .  S
C1099      F1109   1.385       .  S
C1113      C1114   1.400       .  A
C1113      C1118   1.408       .  A
C1113      H1123   1.085       .  S
C1114      C1115   1.417       .  A
C1114      C1119   1.497       .  S
C1115      C1116   1.412       .  A
C1115      C1120   1.517       .  S
C1116      C1117   1.408       .  A
C1116      H1121   1.082       .  S
C1117      C1118   1.425       .  A
C1118      C1122   1.518       .  S
C1119      C1124   1.419       .  A
C1119      C1128   1.400       .  A
C1120      F1136   1.382       .  S
C1120      F1137   1.383       .  S
C1120      F1138   1.384       .  S
C1122      F1133   1.384       .  S
C1122      F1134   1.381       .  S
C1122      F1135   1.379       .  S
C1124      C1125   1.414       .  A
C1124      C1129   1.519       .  S
C1125      C1126   1.406       .  A
C1125      H1130   1.080       .  S
C1126      C1127   1.424       .  A
C1127      C1128   1.410       .  A
C1127      C1131   1.516       .  S
C1128      H1132   1.083       .  S
C1129      F1142   1.385       .  S
C1129      F1143   1.382       .  S
C1129      F1144   1.382       .  S
C1131      F1139   1.385       .  S
C1131      F1140   1.381       .  S
C1131      F1141   1.379       .  S
C1145      C1146   1.398       .  A
C1145      C1150   1.403       .  A
C1145      H1155   1.084       .  S
C1146      C1147   1.418       .  A
C1146      C1151   1.493       .  S
C1147      C1148   1.412       .  A
C1147      C1152   1.519       .  S
C1148      C1149   1.409       .  A
C1148      H1153   1.082       .  S
C1149      C1150   1.423       .  A
C1150      C1154   1.518       .  S
C1151      C1156   1.418       .  A
C1151      C1160   1.400       .  A
C1152      F1168   1.381       .  S
C1152      F1169   1.383       .  S
C1152      F1170   1.385       .  S
C1154      F1165   1.383       .  S
C1154      F1166   1.379       .  S
C1154      F1167   1.380       .  S
C1156      C1157   1.409       .  A
C1156      C1161   1.520       .  S
C1157      C1158   1.405       .  A
C1157      H1162   1.084       .  S
C1158      C1159   1.427       .  A
C1159      C1160   1.407       .  A
C1159      C1163   1.517       .  S
C1160      H1164   1.085       .  S
C1161      F1174   1.385       .  S
C1161      F1175   1.381       .  S
C1161      F1176   1.382       .  S
C1163      F1171   1.384       .  S
C1163      F1172   1.371       .  S
C1163      F1173   1.383       .  S
C1177      C1178   1.405       .  A
C1177      C1182   1.413       .  A
C1177      H1187   1.080       .  S
C1178      C1179   1.421       .  A
C1178      C1183   1.497       .  S
C1179      C1180   1.404       .  A
C1179      C1184   1.519       .  S
C1180      C1181   1.401       .  A
C1180      H1185   1.082       .  S
C1181      C1182   1.420       .  A
C1182      C1186   1.517       .  S
C1183      C1188   1.418       .  A
C1183      C1192   1.398       .  A
C1184      F1200   1.383       .  S
C1184      F1201   1.383       .  S
C1184      F1202   1.382       .  S
C1186      F1197   1.384       .  S
C1186      F1198   1.381       .  S
C1186      F1199   1.383       .  S
C1188      C1189   1.417       .  A
C1188      C1193   1.518       .  S
C1189      C1190   1.411       .  A
C1189      H1194   1.083       .  S
C1190      C1191   1.431       .  A
C1191      C1192   1.402       .  A
C1191      C1195   1.522       .  S
C1192      H1196   1.083       .  S
C1193      F1206   1.385       .  S
C1193      F1207   1.381       .  S
C1193      F1208   1.383       .  S
C1195      F1203   1.385       .  S
C1195      F1204   1.371       .  S
C1195      F1205   1.382       .  S
C1209      C1210   1.395       .  A
C1209      C1214   1.395       .  A
C1209      H1219   1.084       .  S
C1210      C1211   1.407       .  A
C1210      C1215   1.467       .  S
C1211      C1212   1.404       .  A
C1211      C1216   1.516       .  S
C1212      C1213   1.411       .  A
C1212      H1217   1.083       .  S
C1213      C1214   1.426       .  A
C1214      C1218   1.521       .  S
C1215      C1220   1.415       .  A
C1215      C1224   1.400       .  A
C1216      F1232   1.382       .  S
C1216      F1233   1.383       .  S
C1216      F1234   1.384       .  S
C1218      F1229   1.385       .  S
C1218      F1230   1.377       .  S
C1218      F1231   1.380       .  S
C1220      C1221   1.396       .  A
C1220      C1225   1.517       .  S
C1221      C1222   1.395       .  A
C1221      H1226   1.077       .  S
C1222      C1223   1.416       .  A
C1223      C1224   1.402       .  A
C1223      C1227   1.516       .  S
C1224      H1228   1.083       .  S
C1225      F1238   1.383       .  S
C1225      F1239   1.383       .  S
C1225      F1240   1.382       .  S
C1227      F1235   1.381       .  S
C1227      F1236   1.382       .  S
C1227      F1237   1.385       .  S
C1241      C1242   1.408       .  A
C1241      C1246   1.413       .  A
C1241      H1251   1.084       .  S
C1242      C1243   1.415       .  A
C1242      C1247   1.498       .  S
C1243      C1244   1.406       .  A
C1243      C1248   1.520       .  S
C1244      C1245   1.409       .  A
C1244      H1249   1.082       .  S
C1245      C1246   1.424       .  A
C1246      C1250   1.514       .  S
C1247      C1252   1.417       .  A
C1247      C1256   1.405       .  A
C1248      F1264   1.380       .  S
C1248      F1265   1.383       .  S
C1248      F1266   1.384       .  S
C1250      F1261   1.383       .  S
C1250      F1262   1.382       .  S
C1250      F1263   1.376       .  S
C1252      C1253   1.412       .  A
C1252      C1257   1.517       .  S
C1253      C1254   1.408       .  A
C1253      H1258   1.081       .  S
C1254      C1255   1.422       .  A
C1255      C1256   1.413       .  A
C1255      C1259   1.517       .  S
C1256      H1260   1.082       .  S
C1257      F1270   1.376       .  S
C1257      F1271   1.383       .  S
C1257      F1272   1.380       .  S
C1259      F1267   1.381       .  S
C1259      F1268   1.382       .  S
C1259      F1269   1.385       .  S
C1273      C1274   1.400       .  A
C1273      C1278   1.410       .  A
C1273      H1283   1.083       .  S
C1274      C1275   1.420       .  A
C1274      C1279   1.498       .  S
C1275      C1276   1.408       .  A
C1275      C1280   1.516       .  S
C1276      C1277   1.402       .  A
C1276      H1281   1.084       .  S
C1277      C1278   1.426       .  A
C1278      C1282   1.516       .  S
C1279      C1284   1.419       .  A
C1279      C1288   1.393       .  A
C1280      F1296   1.380       .  S
C1280      F1297   1.383       .  S
C1280      F1298   1.385       .  S
C1282      F1293   1.385       .  S
C1282      F1294   1.376       .  S
C1282      F1295   1.378       .  S
C1284      C1285   1.419       .  A
C1284      C1289   1.518       .  S
C1285      C1286   1.411       .  A
C1285      H1290   1.081       .  S
C1286      C1287   1.429       .  A
C1287      C1288   1.406       .  A
C1287      C1291   1.511       .  S
C1288      H1292   1.083       .  S
C1289      F1302   1.384       .  S
C1289      F1303   1.381       .  S
C1289      F1304   1.383       .  S
C1291      F1299   1.372       .  S
C1291      F1300   1.375       .  S
C1291      F1301   1.385       .  S
C1305      C1306   1.403       .  A
C1305      C1310   1.410       .  A
C1305      H1315   1.084       .  S
C1306      C1307   1.414       .  A
C1306      C1311   1.491       .  S
C1307      C1308   1.403       .  A
C1307      C1312   1.514       .  S
C1308      C1309   1.403       .  A
C1308      H1313   1.084       .  S
C1309      C1310   1.423       .  A
C1310      C1314   1.515       .  S
C1311      C1316   1.414       .  A
C1311      C1320   1.402       .  A
C1312      F1328   1.382       .  S
C1312      F1329   1.383       .  S
C1312      F1330   1.383       .  S
C1314      F1325   1.384       .  S
C1314      F1326   1.382       .  S
C1314      F1327   1.376       .  S
C1316      C1317   1.406       .  A
C1316      C1321   1.520       .  S
C1317      C1318   1.407       .  A
C1317      H1322   1.081       .  S
C1318      C1319   1.423       .  A
C1319      C1320   1.409       .  A
C1319      C1323   1.512       .  S
C1320      H1324   1.085       .  S
C1321      F1334   1.384       .  S
C1321      F1335   1.382       .  S
C1321      F1336   1.383       .  S
C1323      F1331   1.382       .  S
C1323      F1332   1.372       .  S
C1323      F1333   1.383       .  S
C1337      C1338   1.406       .  A
C1337      C1342   1.415       .  A
C1337      H1347   1.084       .  S
C1338      C1339   1.415       .  A
C1338      C1343   1.499       .  S
C1339      C1340   1.409       .  A
C1339      C1344   1.521       .  S
C1340      C1341   1.408       .  A
C1340      H1345   1.080       .  S
C1341      C1342   1.424       .  A
C1342      C1346   1.517       .  S
C1343      C1348   1.414       .  A
C1343      C1352   1.403       .  A
C1344      F1360   1.383       .  S
C1344      F1361   1.381       .  S
C1344      F1362   1.385       .  S
C1346      F1357   1.383       .  S
C1346      F1358   1.383       .  S
C1346      F1359   1.380       .  S
C1348      C1349   1.408       .  A
C1348      C1353   1.513       .  S
C1349      C1350   1.404       .  A
C1349      H1354   1.080       .  S
C1350      C1351   1.426       .  A
C1351      C1352   1.416       .  A
C1351      C1355   1.514       .  S
C1352      H1356   1.084       .  S
C1353      F1366   1.384       .  S
C1353      F1367   1.382       .  S
C1353      F1368   1.381       .  S
C1355      F1363   1.383       .  S
C1355      F1364   1.375       .  S
C1355      F1365   1.384       .  S
C1369      C1370   1.407       .  A
C1369      C1374   1.417       .  A
C1369      H1379   1.082       .  S
C1370      C1371   1.425       .  A
C1370      C1375   1.518       .  S
C1371      C1372   1.417       .  A
C1371      C1376   1.518       .  S
C1372      C1373   1.408       .  A
C1372      H1377   1.083       .  S
C1373      C1374   1.421       .  A
C1374      C1378   1.517       .  S
C1375      C1380   1.422       .  A
C1375      C1384   1.409       .  A
C1376      F1392   1.380       .  S
C1376      F1393   1.376       .  S
C1376      F1394   1.383       .  S
C1378      F1389   1.383       .  S
C1378      F1390   1.385       .  S
C1378      F1391   1.383       .  S
C1380      C1381   1.413       .  A
C1380      C1385   1.519       .  S
C1381      C1382   1.408       .  A
C1381      H1386   1.078       .  S
C1382      C1383   1.425       .  A
C1383      C1384   1.418       .  A
C1383      C1387   1.515       .  S
C1384      H1388   1.082       .  S
C1385      F1398   1.383       .  S
C1385      F1399   1.380       .  S
C1385      F1400   1.380       .  S
C1387      F1395   1.382       .  S
C1387      F1396   1.380       .  S
C1387      F1397   1.383       .  S
C1401      C1402   1.406       .  A
C1401      C1406   1.410       .  A
C1401      H1411   1.083       .  S
C1402      C1403   1.418       .  A
C1402      C1407   1.499       .  S
C1403      C1404   1.407       .  A
C1403      C1408   1.521       .  S
C1404      C1405   1.407       .  A
C1404      H1409   1.079       .  S
C1405      C1406   1.421       .  A
C1406      C1410   1.517       .  S
C1407      C1412   1.417       .  A
C1407      C1416   1.408       .  A
C1408      F1424   1.381       .  S
C1408      F1425   1.383       .  S
C1408      F1426   1.384       .  S
C1410      F1421   1.383       .  S
C1410      F1422   1.381       .  S
C1410      F1423   1.381       .  S
C1412      C1413   1.406       .  A
C1412      C1417   1.524       .  S
C1413      C1414   1.411       .  A
C1413      H1418   1.081       .  S
C1414      C1415   1.420       .  A
C1415      C1416   1.416       .  A
C1415      C1419   1.517       .  S
C1416      H1420   1.082       .  S
C1417      F1430   1.384       .  S
C1417      F1431   1.380       .  S
C1417      F1432   1.383       .  S
C1419      F1427   1.384       .  S
C1419      F1428   1.382       .  S
C1419      F1429   1.383       .  S
C1433      C1434   1.396       .  A
C1433      C1438   1.391       .  A
C1433      H1443   1.086       .  S
C1434      C1435   1.404       .  A
C1434      C1439   1.460       .  S
C1435      C1436   1.398       .  A
C1435      C1440   1.518       .  S
C1436      C1437   1.411       .  A
C1436      H1441   1.083       .  S
C1437      C1438   1.428       .  A
C1438      C1442   1.523       .  S
C1439      C1444   1.413       .  A
C1439      C1448   1.397       .  A
C1440      F1456   1.381       .  S
C1440      F1457   1.383       .  S
C1440      F1458   1.385       .  S
C1442      F1453   1.384       .  S
C1442      F1454   1.384       .  S
C1442      F1455   1.366       .  S
C1444      C1445   1.392       .  A
C1444      C1449   1.520       .  S
C1445      C1446   1.398       .  A
C1445      H1450   1.083       .  S
C1446      C1447   1.417       .  A
C1447      C1448   1.400       .  A
C1447      C1451   1.519   1_545  S
C1448      H1452   1.082       .  S
C1449      F1462   1.381       .  S
C1449      F1463   1.383       .  S
C1449      F1464   1.383       .  S
C1451      F1459   1.385       .  S
C1451      F1460   1.381       .  S
C1451      F1461   1.382       .  S
C1465      C1466   1.396       .  A
C1465      C1470   1.399       .  A
C1465      H1475   1.085       .  S
C1466      C1467   1.414       .  A
C1466      C1471   1.476       .  S
C1467      C1468   1.407       .  A
C1467      C1472   1.515       .  S
C1468      C1469   1.401       .  A
C1468      H1473   1.082       .  S
C1469      C1470   1.420       .  A
C1470      C1474   1.518       .  S
C1471      C1476   1.412       .  A
C1471      C1480   1.398       .  A
C1472      F1488   1.383       .  S
C1472      F1489   1.378       .  S
C1472      F1490   1.384       .  S
C1474      F1485   1.382       .  S
C1474      F1486   1.385       .  S
C1474      F1487   1.381       .  S
C1476      C1477   1.399       .  A
C1476      C1481   1.520       .  S
C1477      C1478   1.405       .  A
C1477      H1482   1.081       .  S
C1478      C1479   1.425       .  A
C1479      C1480   1.410       .  A
C1479      C1483   1.520       .  S
C1480      H1484   1.083       .  S
C1481      F1494   1.384       .  S
C1481      F1495   1.380       .  S
C1481      F1496   1.376       .  S
C1483      F1491   1.385       .  S
C1483      F1492   1.383       .  S
C1483      F1493   1.384       .  S
C1497      C1498   1.398       .  A
C1497      C1502   1.408       .  A
C1497      H1507   1.083       .  S
C1498      C1499   1.410       .  A
C1498      C1503   1.471       .  S
C1499      C1500   1.395       .  A
C1499      C1504   1.522       .  S
C1500      C1501   1.409       .  A
C1500      H1505   1.081       .  S
C1501      C1502   1.426       .  A
C1502      C1506   1.521       .  S
C1503      C1508   1.410       .  A
C1503      C1512   1.404       .  A
C1504      F1520   1.382       .  S
C1504      F1521   1.382       .  S
C1504      F1522   1.385       .  S
C1506      F1517   1.382       .  S
C1506      F1518   1.385       .  S
C1506      F1519   1.383   1_554  S
C1508      C1509   1.396       .  A
C1508      C1513   1.521       .  S
C1509      C1510   1.406       .  A
C1509      H1514   1.083       .  S
C1510      C1511   1.413       .  A
C1511      C1512   1.407       .  A
C1511      C1515   1.515       .  S
C1512      H1516   1.083       .  S
C1513      F1526   1.385       .  S
C1513      F1527   1.382       .  S
C1513      F1528   1.383       .  S
C1515      F1523   1.382       .  S
C1515      F1524   1.380       .  S
C1515      F1525   1.384       .  S
C1529      C1530   1.403       .  A
C1529      C1534   1.412       .  A
C1529      H1539   1.084       .  S
C1530      C1531   1.421       .  A
C1530      C1535   1.498       .  S
C1531      C1532   1.413       .  A
C1531      C1536   1.514       .  S
C1532      C1533   1.401       .  A
C1532      H1537   1.083       .  S
C1533      C1534   1.422       .  A
C1534      C1538   1.515       .  S
C1535      C1540   1.418       .  A
C1535      C1544   1.398       .  A
C1536      F1552   1.380       .  S
C1536      F1553   1.382       .  S
C1536      F1554   1.383       .  S
C1538      F1549   1.376       .  S
C1538      F1550   1.385       .  S
C1538      F1551   1.383       .  S
C1540      C1541   1.417       .  A
C1540      C1545   1.516       .  S
C1541      C1542   1.410       .  A
C1541      H1546   1.081       .  S
C1542      C1543   1.426       .  A
C1543      C1544   1.406       .  A
C1543      C1547   1.515   1_554  S
C1544      H1548   1.085       .  S
C1545      F1558   1.384       .  S
C1545      F1559   1.383       .  S
C1545      F1560   1.381       .  S
C1547      F1555   1.382       .  S
C1547      F1556   1.374       .  S
C1547      F1557   1.383       .  S
C1561      C1562   1.399       .  A
C1561      C1566   1.408       .  A
C1561      H1571   1.082       .  S
C1562      C1563   1.419       .  A
C1562      C1567   1.497       .  S
C1563      C1564   1.410       .  A
C1563      C1568   1.515       .  S
C1564      C1565   1.402       .  A
C1564      H1569   1.083       .  S
C1565      C1566   1.422       .  A
C1566      C1570   1.513       .  S
C1567      C1572   1.418       .  A
C1567      C1576   1.403       .  A
C1568      F1584   1.380       .  S
C1568      F1585   1.380       .  S
C1568      F1586   1.377       .  S
C1570      F1581   1.385       .  S
C1570      F1582   1.378       .  S
C1570      F1583   1.377       .  S
C1572      C1573   1.405       .  A
C1572      C1577   1.521       .  S
C1573      C1574   1.405       .  A
C1573      H1578   1.080       .  S
C1574      C1575   1.421       .  A
C1575      C1576   1.408       .  A
C1575      C1579   1.511       .  S
C1576      H1580   1.083       .  S
C1577      F1590   1.385       .  S
C1577      F1591   1.382       .  S
C1577      F1592   1.383       .  S
C1579      F1587   1.383       .  S
C1579      F1588   1.373       .  S
C1579      F1589   1.384       .  S
C1593      C1594   1.394   1_554  A
C1593      C1598   1.402       .  A
C1593      H1603   1.086       .  S
C1594      C1595   1.418       .  A
C1594      C1599   1.496       .  S
C1595      C1596   1.418       .  A
C1595      C1600   1.517       .  S
C1596      C1597   1.413       .  A
C1596      H1601   1.082       .  S
C1597      C1598   1.430   1_556  A
C1598      C1602   1.516       .  S
C1599      C1604   1.418       .  A
C1599      C1608   1.409       .  A
C1600      F1616   1.382       .  S
C1600      F1617   1.381       .  S
C1600      F1618   1.385       .  S
C1602      F1613   1.384       .  S
C1602      F1614   1.384   1_545  S
C1602      F1615   1.367   1_545  S
C1604      C1605   1.407       .  A
C1604      C1609   1.521       .  S
C1605      C1606   1.410       .  A
C1605      H1610   1.085       .  S
C1606      C1607   1.423       .  A
C1607      C1608   1.417       .  A
C1607      C1611   1.518       .  S
C1608      H1612   1.083       .  S
C1609      F1622   1.383       .  S
C1609      F1623   1.382   1_556  S
C1609      F1624   1.381       .  S
C1611      F1619   1.383   1_556  S
C1611      F1620   1.380       .  S
C1611      F1621   1.384       .  S
C1625      C1626   1.404       .  A
C1625      C1630   1.412       .  A
C1625      H1635   1.083       .  S
C1626      C1627   1.419       .  A
C1626      C1631   1.502       .  S
C1627      C1628   1.417       .  A
C1627      C1632   1.517       .  S
C1628      C1629   1.408       .  A
C1628      H1633   1.083       .  S
C1629      C1630   1.421       .  A
C1630      C1634   1.513       .  S
C1631      C1636   1.423       .  A
C1631      C1640   1.402       .  A
C1632      F1648   1.382       .  S
C1632      F1649   1.382       .  S
C1632      F1650   1.378       .  S
C1634      F1645   1.385       .  S
C1634      F1646   1.381       .  S
C1634      F1647   1.382       .  S
C1636      C1637   1.412       .  A
C1636      C1641   1.518       .  S
C1637      C1638   1.408       .  A
C1637      H1642   1.081       .  S
C1638      C1639   1.428       .  A
C1639      C1640   1.408       .  A
C1639      C1643   1.520   1_554  S
C1640      H1644   1.085       .  S
C1641      F1654   1.384       .  S
C1641      F1655   1.381       .  S
C1641      F1656   1.384       .  S
C1643      F1651   1.384       .  S
C1643      F1652   1.375       .  S
C1643      F1653   1.383       .  S
C1657      C1658   1.390       .  A
C1657      C1662   1.396       .  A
C1657      H1667   1.084       .  S
C1658      C1659   1.416       .  A
C1658      C1663   1.475       .  S
C1659      C1660   1.409       .  A
C1659      C1664   1.515       .  S
C1660      C1661   1.402       .  A
C1660      H1665   1.083       .  S
C1661      C1662   1.421       .  A
C1662      C1666   1.509   1_545  S
C1663      C1668   1.416       .  A
C1663      C1672   1.397       .  A
C1664      F1680   1.382       .  S
C1664      F1681   1.379       .  S
C1664      F1682   1.384       .  S
C1666      F1677   1.375   1_565  S
C1666      F1678   1.385       .  S
C1666      F1679   1.382       .  S
C1668      C1669   1.400       .  A
C1668      C1673   1.521       .  S
C1669      C1670   1.403       .  A
C1669      H1674   1.083       .  S
C1670      C1671   1.424       .  A
C1671      C1672   1.405       .  A
C1671      C1675   1.521       .  S
C1672      H1676   1.083       .  S
C1673      F1686   1.385       .  S
C1673      F1687   1.382       .  S
C1673      F1688   1.379       .  S
C1675      F1683   1.383       .  S
C1675      F1684   1.384       .  S
C1675      F1685   1.385       .  S
C1689      C1690   1.393       .  A
C1689      C1694   1.395   1_565  A
C1689      H1699   1.085   1_565  S
C1690      C1691   1.413       .  A
C1690      C1695   1.468       .  S
C1691      C1692   1.406       .  A
C1691      C1696   1.517       .  S
C1692      C1693   1.402       .  A
C1692      H1697   1.082       .  S
C1693      C1694   1.418   1_565  A
C1694      C1698   1.514       .  S
C1695      C1700   1.415       .  A
C1695      C1704   1.397       .  A
C1696      F1712   1.383       .  S
C1696      F1713   1.382       .  S
C1696      F1714   1.384       .  S
C1698      F1709   1.382       .  S
C1698      F1710   1.385       .  S
C1698      F1711   1.378       .  S
C1700      C1701   1.396       .  A
C1700      C1705   1.522       .  S
C1701      C1702   1.401       .  A
C1701      H1706   1.084       .  S
C1702      C1703   1.422       .  A
C1703      C1704   1.404       .  A
C1703      C1707   1.521       .  S
C1704      H1708   1.083       .  S
C1705      F1718   1.385       .  S
C1705      F1719   1.382       .  S
C1705      F1720   1.382       .  S
C1707      F1715   1.385       .  S
C1707      F1716   1.382       .  S
C1707      F1717   1.383       .  S
C1721      C1722   1.406       .  A
C1721      C1726   1.417       .  A
C1721      H1731   1.081       .  S
C1722      C1723   1.425       .  A
C1722      C1727   1.516       .  S
C1723      C1724   1.418       .  A
C1723      C1728   1.519       .  S
C1724      C1725   1.406       .  A
C1724      H1729   1.083       .  S
C1725      C1726   1.423       .  A
C1726      C1730   1.519       .  S
C1727      C1732   1.422       .  A
C1727      C1736   1.404       .  A
C1728      F1744   1.380       .  S
C1728      F1745   1.384       .  S
C1728      F1746   1.382       .  S
C1730      F1741   1.384       .  S
C1730      F1742   1.381       .  S
C1730      F1743   1.383       .  S
C1732      C1733   1.419       .  A
C1732      C1737   1.520       .  S
C1733      C1734   1.412       .  A
C1733      H1738   1.083       .  S
C1734      C1735   1.424       .  A
C1735      C1736   1.413       .  A
C1735      C1739   1.507       .  S
C1736      H1740   1.083       .  S
C1737      F1750   1.385       .  S
C1737      F1751   1.380       .  S
C1737      F1752   1.383       .  S
C1739      F1747   1.382       .  S
C1739      F1748   1.369       .  S
C1739      F1749   1.384       .  S
C1753      C1754   1.407   1_545  A
C1753      C1758   1.410       .  A
C1753      H1763   1.083       .  S
C1754      C1755   1.422       .  A
C1754      C1759   1.500       .  S
C1755      C1756   1.415       .  A
C1755      C1760   1.519       .  S
C1756      C1757   1.410       .  A
C1756      H1761   1.085       .  S
C1757      C1758   1.421   1_565  A
C1758      C1762   1.520       .  S
C1759      C1764   1.422       .  A
C1759      C1768   1.396       .  A
C1760      F1776   1.381       .  S
C1760      F1777   1.383       .  S
C1760      F1778   1.382       .  S
C1762      F1773   1.381       .  S
C1762      F1774   1.385       .  S
C1762      F1775   1.383       .  S
C1764      C1765   1.420       .  A
C1764      C1769   1.519       .  S
C1765      C1766   1.413       .  A
C1765      H1770   1.082       .  S
C1766      C1767   1.428       .  A
C1767      C1768   1.401       .  A
C1767      C1771   1.516       .  S
C1768      H1772   1.086       .  S
C1769      F1782   1.385       .  S
C1769      F1783   1.383   1_565  S
C1769      F1784   1.379       .  S
C1771      F1779   1.384   1_565  S
C1771      F1780   1.371   1_565  S
C1771      F1781   1.382       .  S
C1785      C1786   1.393       .  A
C1785      C1790   1.398       .  A
C1785      H1795   1.084       .  S
C1786      C1787   1.409       .  A
C1786      C1791   1.473       .  S
C1787      C1788   1.406       .  A
C1787      C1792   1.516       .  S
C1788      C1789   1.409       .  A
C1788      H1793   1.082       .  S
C1789      C1790   1.434       .  A
C1790      C1794   1.530       .  S
C1791      C1796   1.411       .  A
C1791      C1800   1.402       .  A
C1792      F1808   1.382       .  S
C1792      F1809   1.383       .  S
C1792      F1810   1.384       .  S
C1794      F1805   1.383       .  S
C1794      F1806   1.386       .  S
C1794      F1807   1.381       .  S
C1796      C1797   1.392       .  A
C1796      C1801   1.521       .  S
C1797      C1798   1.407       .  A
C1797      H1802   1.081       .  S
C1798      C1799   1.421       .  A
C1799      C1800   1.410       .  A
C1799      C1803   1.516       .  S
C1800      H1804   1.083       .  S
C1801      F1814   1.384       .  S
C1801      F1815   1.378       .  S
C1801      F1816   1.382       .  S
C1803      F1811   1.383       .  S
C1803      F1812   1.381       .  S
C1803      F1813   1.385       .  S
C1817      C1818   1.397       .  A
C1817      C1822   1.401       .  A
C1817      H1827   1.084       .  S
C1818      C1819   1.418       .  A
C1818      C1823   1.481       .  S
C1819      C1820   1.409       .  A
C1819      C1824   1.516       .  S
C1820      C1821   1.401       .  A
C1820      H1825   1.083       .  S
C1821      C1822   1.418       .  A
C1822      C1826   1.513       .  S
C1823      C1828   1.416       .  A
C1823      C1832   1.397       .  A
C1824      F1840   1.380       .  S
C1824      F1841   1.383       .  S
C1824      F1842   1.385       .  S
C1826      F1837   1.385       .  S
C1826      F1838   1.379       .  S
C1826      F1839   1.383       .  S
C1828      C1829   1.409       .  A
C1828      C1833   1.517       .  S
C1829      C1830   1.409       .  A
C1829      H1834   1.084       .  S
C1830      C1831   1.431       .  A
C1831      C1832   1.401       .  A
C1831      C1835   1.526       .  S
C1832      H1836   1.084       .  S
C1833      F1846   1.383       .  S
C1833      F1847   1.383       .  S
C1833      F1848   1.382       .  S
C1835      F1843   1.382       .  S
C1835      F1844   1.382       .  S
C1835      F1845   1.385       .  S
C1849      C1850   1.403       .  A
C1849      C1854   1.410       .  A
C1849      H1859   1.081       .  S
C1850      C1851   1.427       .  A
C1850      C1855   1.521       .  S
C1851      C1852   1.423       .  A
C1851      C1856   1.519       .  S
C1852      C1853   1.412       .  A
C1852      H1857   1.083       .  S
C1853      C1854   1.431       .  A
C1854      C1858   1.523       .  S
C1855      C1860   1.424       .  A
C1855      C1864   1.408       .  A
C1856      F1872   1.381       .  S
C1856      F1873   1.384       .  S
C1856      F1874   1.384       .  S
C1858      F1869   1.385       .  S
C1858      F1870   1.382       .  S
C1858      F1871   1.384       .  S
C1860      C1861   1.413       .  A
C1860      C1865   1.521       .  S
C1861      C1862   1.408       .  A
C1861      H1866   1.050       .  S
C1862      C1863   1.428       .  A
C1863      C1864   1.418       .  A
C1863      C1867   1.520       .  S
C1864      H1868   1.077       .  S
C1865      F1878   1.383       .  S
C1865      F1879   1.383       .  S
C1865      F1880   1.382       .  S
C1867      F1875   1.383       .  S
C1867      F1876   1.378       .  S
C1867      F1877   1.384       .  S
C1881      C1882   1.405       .  A
C1881      C1886   1.412       .  A
C1881      H1891   1.081       .  S
C1882      C1883   1.421       .  A
C1882      C1887   1.510       .  S
C1883      C1884   1.413       .  A
C1883      C1888   1.520       .  S
C1884      C1885   1.409       .  A
C1884      H1889   1.081       .  S
C1885      C1886   1.423       .  A
C1886      C1890   1.514       .  S
C1887      C1892   1.423       .  A
C1887      C1896   1.402       .  A
C1888      F1904   1.380       .  S
C1888      F1905   1.383       .  S
C1888      F1906   1.383       .  S
C1890      F1901   1.380       .  S
C1890      F1902   1.383       .  S
C1890      F1903   1.381       .  S
C1892      C1893   1.419       .  A
C1892      C1897   1.519       .  S
C1893      C1894   1.408       .  A
C1893      H1898   1.080       .  S
C1894      C1895   1.425       .  A
C1895      C1896   1.412       .  A
C1895      C1899   1.521       .  S
C1896      H1900   1.083       .  S
C1897      F1910   1.382       .  S
C1897      F1911   1.380       .  S
C1897      F1912   1.383       .  S
C1899      F1907   1.382       .  S
C1899      F1908   1.382       .  S
C1899      F1909   1.384       .  S
C1913      C1914   1.395       .  A
C1913      C1918   1.402       .  A
C1913      H1923   1.084       .  S
C1914      C1915   1.415       .  A
C1914      C1919   1.481       .  S
C1915      C1916   1.409       .  A
C1915      C1920   1.517       .  S
C1916      C1917   1.405       .  A
C1916      H1921   1.078       .  S
C1917      C1918   1.423       .  A
C1918      C1922   1.513   1_565  S
C1919      C1924   1.415       .  A
C1919      C1928   1.407       .  A
C1920      F1936   1.380       .  S
C1920      F1937   1.384       .  S
C1920      F1938   1.383       .  S
C1922      F1933   1.373   1_545  S
C1922      F1934   1.385       .  S
C1922      F1935   1.381       .  S
C1924      C1925   1.398       .  A
C1924      C1929   1.521       .  S
C1925      C1926   1.405       .  A
C1925      H1930   1.085       .  S
C1926      C1927   1.418       .  A
C1927      C1928   1.412       .  A
C1927      C1931   1.516       .  S
C1928      H1932   1.083       .  S
C1929      F1942   1.383       .  S
C1929      F1943   1.381       .  S
C1929      F1944   1.383       .  S
C1931      F1939   1.382       .  S
C1931      F1940   1.376       .  S
C1931      F1941   1.385       .  S
C1945      C1946   1.395       .  A
C1945      C1950   1.398       .  A
C1945      H1955   1.084       .  S
C1946      C1947   1.418       .  A
C1946      C1951   1.478       .  S
C1947      C1948   1.405       .  A
C1947      C1952   1.519       .  S
C1948      C1949   1.401       .  A
C1948      H1953   1.082       .  S
C1949      C1950   1.425       .  A
C1950      C1954   1.521   1_545  S
C1951      C1956   1.417       .  A
C1951      C1960   1.393       .  A
C1952      F1968   1.381       .  S
C1952      F1969   1.382       .  S
C1952      F1970   1.385       .  S
C1954      F1965   1.383       .  S
C1954      F1966   1.383       .  S
C1954      F1967   1.376       .  S
C1956      C1957   1.412       .  A
C1956      C1961   1.517       .  S
C1957      C1958   1.404       .  A
C1957      H1962   1.080       .  S
C1958      C1959   1.417       .  A
C1959      C1960   1.397       .  A
C1959      C1963   1.508       .  S
C1960      H1964   1.084       .  S
C1961      F1974   1.384       .  S
C1961      F1975   1.381       .  S
C1961      F1976   1.383       .  S
C1963      F1971   1.386       .  S
C1963      F1972   1.383       .  S
C1963      F1973   1.379       .  S
C1977      C1978   1.398   1_565  A
C1977      C1982   1.401       .  A
C1977      H1987   1.085       .  S
C1978      C1979   1.424       .  A
C1978      C1983   1.499       .  S
C1979      C1980   1.415       .  A
C1979      C1984   1.517       .  S
C1980      C1981   1.407       .  A
C1980      H1985   1.083       .  S
C1981      C1982   1.429   1_545  A
C1982      C1986   1.517       .  S
C1983      C1988   1.423       .  A
C1983      C1992   1.404   1_545  A
C1984      F2000   1.381       .  S
C1984      F2001   1.383       .  S
C1984      F2002   1.384       .  S
C1986      F1997   1.383       .  S
C1986      F1998   1.383       .  S
C1986      F1999   1.366       .  S
C1988      C1989   1.416       .  A
C1988      C1993   1.518       .  S
C1989      C1990   1.407       .  A
C1989      H1994   1.085       .  S
C1990      C1991   1.421   1_545  A
C1991      C1992   1.407       .  A
C1991      C1995   1.519       .  S
C1992      H1996   1.083       .  S
C1993      F2006   1.383       .  S
C1993      F2007   1.380       .  S
C1993      F2008   1.383       .  S
C1995      F2003   1.382       .  S
C1995      F2004   1.378       .  S
C1995      F2005   1.385       .  S
C2009      C2010   1.391       .  A
C2009      C2014   1.401       .  A
C2009      H2019   1.086       .  S
C2010      C2011   1.414       .  A
C2010      C2015   1.488       .  S
C2011      C2012   1.415       .  A
C2011      C2016   1.518       .  S
C2012      C2013   1.415       .  A
C2012      H2017   1.075       .  S
C2013      C2014   1.434       .  A
C2014      C2018   1.510       .  S
C2015      C2020   1.419       .  A
C2015      C2024   1.404       .  A
C2016      F2032   1.383       .  S
C2016      F2033   1.381       .  S
C2016      F2034   1.385       .  S
C2018      F2029   1.383       .  S
C2018      F2030   1.385       .  S
C2018      F2031   1.360       .  S
C2020      C2021   1.407       .  A
C2020      C2025   1.517       .  S
C2021      C2022   1.405       .  A
C2021      H2026   1.085       .  S
C2022      C2023   1.421       .  A
C2023      C2024   1.408       .  A
C2023      C2027   1.521       .  S
C2024      H2028   1.083       .  S
C2025      F2038   1.383       .  S
C2025      F2039   1.382       .  S
C2025      F2040   1.381       .  S
C2027      F2035   1.385       .  S
C2027      F2036   1.383       .  S
C2027      F2037   1.382       .  S
C2041      C2042   1.401       .  A
C2041      C2046   1.413       .  A
C2041      H2051   1.082       .  S
C2042      C2043   1.419       .  A
C2042      C2047   1.496       .  S
C2043      C2044   1.409       .  A
C2043      C2048   1.521       .  S
C2044      C2045   1.401       .  A
C2044      H2049   1.073       .  S
C2045      C2046   1.426       .  A
C2046      C2050   1.520       .  S
C2047      C2052   1.420       .  A
C2047      C2056   1.400       .  A
C2048      F2064   1.382       .  S
C2048      F2065   1.383       .  S
C2048      F2066   1.384       .  S
C2050      F2061   1.382       .  S
C2050      F2062   1.385       .  S
C2050      F2063   1.383       .  S
C2052      C2053   1.413       .  A
C2052      C2057   1.517       .  S
C2053      C2054   1.402       .  A
C2053      H2058   1.082       .  S
C2054      C2055   1.419       .  A
C2055      C2056   1.407       .  A
C2055      C2059   1.513       .  S
C2056      H2060   1.084       .  S
C2057      F2070   1.385       .  S
C2057      F2071   1.382       .  S
C2057      F2072   1.381       .  S
C2059      F2067   1.385       .  S
C2059      F2068   1.382       .  S
C2059      F2069   1.380       .  S
C2073      C2074   1.398       .  A
C2073      C2078   1.403       .  A
C2073      H2083   1.083       .  S
C2074      C2075   1.414       .  A
C2074      C2079   1.474       .  S
C2075      C2076   1.405       .  A
C2075      C2080   1.519       .  S
C2076      C2077   1.399       .  A
C2076      H2081   1.079       .  S
C2077      C2078   1.419       .  A
C2078      C2082   1.519       .  S
C2079      C2084   1.414       .  A
C2079      C2088   1.395       .  A
C2080      F2096   1.383       .  S
C2080      F2097   1.382       .  S
C2080      F2098   1.383       .  S
C2082      F2093   1.378       .  S
C2082      F2094   1.384       .  S
C2082      F2095   1.383       .  S
C2084      C2085   1.402       .  A
C2084      C2089   1.514       .  S
C2085      C2086   1.401       .  A
C2085      H2090   1.083       .  S
C2086      C2087   1.421       .  A
C2087      C2088   1.402       .  A
C2087      C2091   1.513       .  S
C2088      H2092   1.083       .  S
C2089      F2102   1.385       .  S
C2089      F2103   1.383       .  S
C2089      F2104   1.382       .  S
C2091      F2099   1.382       .  S
C2091      F2100   1.382       .  S
C2091      F2101   1.385       .  S
C2105      C2106   1.393       .  A
C2105      C2110   1.395       .  A
C2105      H2115   1.086       .  S
C2106      C2107   1.415       .  A
C2106      C2111   1.486       .  S
C2107      C2108   1.412       .  A
C2107      C2112   1.518   1_545  S
C2108      C2109   1.411       .  A
C2108      H2113   1.083   1_545  S
C2109      C2110   1.432       .  A
C2110      C2114   1.519       .  S
C2111      C2116   1.422       .  A
C2111      C2120   1.401       .  A
C2112      F2128   1.380       .  S
C2112      F2129   1.383       .  S
C2112      F2130   1.385       .  S
C2114      F2125   1.382       .  S
C2114      F2126   1.381       .  S
C2114      F2127   1.360       .  S
C2116      C2117   1.396       .  A
C2116      C2121   1.518       .  S
C2117      C2118   1.398       .  A
C2117      H2122   1.085       .  S
C2118      C2119   1.424       .  A
C2119      C2120   1.409       .  A
C2119      C2123   1.521       .  S
C2120      H2124   1.080       .  S
C2121      F2134   1.380       .  S
C2121      F2135   1.381       .  S
C2121      F2136   1.384       .  S
C2123      F2131   1.385       .  S
C2123      F2132   1.383       .  S
C2123      F2133   1.383       .  S
C2137      C2138   1.404   1_565  A
C2137      C2142   1.404       .  A
C2137      H2147   1.083       .  S
C2138      C2139   1.430       .  A
C2138      C2143   1.512       .  S
C2139      C2140   1.413       .  A
C2139      C2144   1.519       .  S
C2140      C2141   1.402       .  A
C2140      H2145   1.081       .  S
C2141      C2142   1.425   1_545  A
C2142      C2146   1.518       .  S
C2143      C2148   1.428   1_545  A
C2143      C2152   1.406       .  A
C2144      F2160   1.383       .  S
C2144      F2161   1.380       .  S
C2144      F2162   1.384       .  S
C2146      F2157   1.384       .  S
C2146      F2158   1.383       .  S
C2146      F2159   1.374       .  S
C2148      C2149   1.411       .  A
C2148      C2153   1.520       .  S
C2149      C2150   1.403   1_565  A
C2149      H2154   1.085       .  S
C2150      C2151   1.428       .  A
C2151      C2152   1.412       .  A
C2151      C2155   1.525       .  S
C2152      H2156   1.082       .  S
C2153      F2166   1.385       .  S
C2153      F2167   1.383       .  S
C2153      F2168   1.382       .  S
C2155      F2163   1.385       .  S
C2155      F2164   1.375       .  S
C2155      F2165   1.383       .  S
C2169      C2170   1.405       .  A
C2169      C2174   1.409       .  A
C2169      H2179   1.080       .  S
C2170      C2171   1.428   1_565  A
C2170      C2175   1.512       .  S
C2171      C2172   1.412       .  A
C2171      C2176   1.520       .  S
C2172      C2173   1.404   1_545  A
C2172      H2177   1.085       .  S
C2173      C2174   1.427       .  A
C2174      C2178   1.526       .  S
C2175      C2180   1.429       .  A
C2175      C2184   1.403   1_565  A
C2176      F2192   1.382       .  S
C2176      F2193   1.383       .  S
C2176      F2194   1.385       .  S
C2178      F2189   1.385       .  S
C2178      F2190   1.376       .  S
C2178      F2191   1.383       .  S
C2180      C2181   1.415       .  A
C2180      C2185   1.519       .  S
C2181      C2182   1.403       .  A
C2181      H2186   1.081       .  S
C2182      C2183   1.426   1_565  A
C2183      C2184   1.403       .  A
C2183      C2187   1.515       .  S
C2184      H2188   1.083       .  S
C2185      F2198   1.382       .  S
C2185      F2199   1.382       .  S
C2185      F2200   1.382       .  S
C2187      F2195   1.383       .  S
C2187      F2196   1.373       .  S
C2187      F2197   1.384       .  S
C2201      C2202   1.401       .  A
C2201      C2206   1.411       .  A
C2201      H2211   1.083       .  S
C2202      C2203   1.411       .  A
C2202      C2207   1.474       .  S
C2203      C2204   1.399       .  A
C2203      C2208   1.526       .  S
C2204      C2205   1.408       .  A
C2204      H2209   1.081       .  S
C2205      C2206   1.425       .  A
C2206      C2210   1.520       .  S
C2207      C2212   1.410       .  A
C2207      C2216   1.397       .  A
C2208      F2224   1.381       .  S
C2208      F2225   1.379       .  S
C2208      F2226   1.383       .  S
C2210      F2221   1.383       .  S
C2210      F2222   1.385       .  S
C2210      F2223   1.383       .  S
C2212      C2213   1.403       .  A
C2212      C2217   1.520       .  S
C2213      C2214   1.401       .  A
C2213      H2218   1.075       .  S
C2214      C2215   1.423       .  A
C2215      C2216   1.403       .  A
C2215      C2219   1.516       .  S
C2216      H2220   1.085       .  S
C2217      F2230   1.382       .  S
C2217      F2231   1.383       .  S
C2217      F2232   1.380       .  S
C2219      F2227   1.385       .  S
C2219      F2228   1.378       .  S
C2219      F2229   1.382       .  S
C2233      C2234   1.407       .  A
C2233      C2238   1.412       .  A
C2233      H2243   1.083       .  S
C2234      C2235   1.414       .  A
C2234      C2239   1.482       .  S
C2235      C2236   1.398       .  A
C2235      C2240   1.517       .  S
C2236      C2237   1.402       .  A
C2236      H2241   1.085       .  S
C2237      C2238   1.414       .  A
C2238      C2242   1.514       .  S
C2239      C2244   1.413       .  A
C2239      C2248   1.400       .  A
C2240      F2256   1.381       .  S
C2240      F2257   1.383       .  S
C2240      F2258   1.383       .  S
C2242      F2253   1.384       .  S
C2242      F2254   1.383       .  S
C2242      F2255   1.377       .  S
C2244      C2245   1.401       .  A
C2244      C2249   1.522       .  S
C2245      C2246   1.408       .  A
C2245      H2250   1.082       .  S
C2246      C2247   1.428       .  A
C2247      C2248   1.413       .  A
C2247      C2251   1.519       .  S
C2248      H2252   1.083       .  S
C2249      F2262   1.384       .  S
C2249      F2263   1.380       .  S
C2249      F2264   1.379       .  S
C2251      F2259   1.382       .  S
C2251      F2260   1.383       .  S
C2251      F2261   1.385       .  S
C2265      C2266   1.395       .  A
C2265      C2270   1.401       .  A
C2265      H2275   1.086       .  S
C2266      C2267   1.410       .  A
C2266      C2271   1.485       .  S
C2267      C2268   1.412       .  A
C2267      C2272   1.517       .  S
C2268      C2269   1.416       .  A
C2268      H2273   1.082       .  S
C2269      C2270   1.437       .  A
C2270      C2274   1.525       .  S
C2271      C2276   1.414       .  A
C2271      C2280   1.405       .  A
C2272      F2288   1.382       .  S
C2272      F2289   1.383       .  S
C2272      F2290   1.384       .  S
C2274      F2285   1.383       .  S
C2274      F2286   1.380       .  S
C2274      F2287   1.370       .  S
C2276      C2277   1.395       .  A
C2276      C2281   1.513       .  S
C2277      C2278   1.400       .  A
C2277      H2282   1.085       .  S
C2278      C2279   1.420       .  A
C2279      C2280   1.410       .  A
C2279      C2283   1.516       .  S
C2280      H2284   1.084       .  S
C2281      F2294   1.384       .  S
C2281      F2295   1.383       .  S
C2281      F2296   1.382       .  S
C2283      F2291   1.382       .  S
C2283      F2292   1.377       .  S
C2283      F2293   1.384       .  S
C2297      C2298   1.390       .  A
C2297      C2302   1.393       .  A
C2297      H2307   1.084       .  S
C2298      C2299   1.418       .  A
C2298      C2303   1.481       .  S
C2299      C2300   1.417       .  A
C2299      C2304   1.517       .  S
C2300      C2301   1.407       .  A
C2300      H2305   1.083       .  S
C2301      C2302   1.416       .  A
C2302      C2306   1.496       .  S
C2303      C2308   1.417       .  A
C2303      C2312   1.390       .  A
C2304      F2320   1.381       .  S
C2304      F2321   1.383       .  S
C2304      F2322   1.385       .  S
C2306      F2317   1.385       .  S
C2306      F2318   1.381       .  S
C2306      F2319   1.382       .  S
C2308      C2309   1.411       .  A
C2308      C2313   1.515       .  S
C2309      C2310   1.409       .  A
C2309      H2314   1.084       .  S
C2310      C2311   1.434       .  A
C2311      C2312   1.397       .  A
C2311      C2315   1.513       .  S
C2312      H2316   1.081       .  S
C2313      F2326   1.383       .  S
C2313      F2327   1.383       .  S
C2313      F2328   1.383       .  S
C2315      F2323   1.384       .  S
C2315      F2324   1.379       .  S
C2315      F2325   1.370       .  S
C2329      C2330   1.410       .  A
C2329      C2334   1.414       .  A
C2329      H2339   1.080       .  S
C2330      C2331   1.412       .  A
C2330      C2335   1.492       .  S
C2331      C2332   1.404       .  A
C2331      C2336   1.525       .  S
C2332      C2333   1.409       .  A
C2332      H2337   1.046       .  S
C2333      C2334   1.426       .  A
C2334      C2338   1.526       .  S
C2335      C2340   1.422       .  A
C2335      C2344   1.398       .  A
C2336      F2352   1.378       .  S
C2336      F2353   1.383       .  S
C2336      F2354   1.380       .  S
C2338      F2349   1.385       .  S
C2338      F2350   1.382       .  S
C2338      F2351   1.381       .  S
C2340      C2341   1.407       .  A
C2340      C2345   1.518       .  S
C2341      C2342   1.407       .  A
C2341      H2346   1.080       .  S
C2342      C2343   1.426       .  A
C2343      C2344   1.397       .  A
C2343      C2347   1.514       .  S
C2344      H2348   1.085       .  S
C2345      F2358   1.379       .  S
C2345      F2359   1.382       .  S
C2345      F2360   1.382       .  S
C2347      F2355   1.384       .  S
C2347      F2356   1.371       .  S
C2347      F2357   1.383       .  S
C2361      C2362   1.399       .  A
C2361      C2366   1.405       .  A
C2361      H2371   1.083       .  S
C2362      C2363   1.421       .  A
C2362      C2367   1.494       .  S
C2363      C2364   1.414       .  A
C2363      C2368   1.519       .  S
C2364      C2365   1.404       .  A
C2364      H2369   1.084       .  S
C2365      C2366   1.420       .  A
C2366      C2370   1.516       .  S
C2367      C2372   1.417       .  A
C2367      C2376   1.398       .  A
C2368      F2384   1.381       .  S
C2368      F2385   1.383       .  S
C2368      F2386   1.385       .  S
C2370      F2381   1.384       .  S
C2370      F2382   1.378       .  S
C2370      F2383   1.381       .  S
C2372      C2373   1.412       .  A
C2372      C2377   1.520       .  S
C2373      C2374   1.409       .  A
C2373      H2378   1.080       .  S
C2374      C2375   1.424       .  A
C2375      C2376   1.406       .  A
C2375      C2379   1.504       .  S
C2376      H2380   1.085       .  S
C2377      F2390   1.385       .  S
C2377      F2391   1.381       .  S
C2377      F2392   1.383       .  S
C2379      F2387   1.382       .  S
C2379      F2388   1.368       .  S
C2379      F2389   1.384       .  S
C2393      C2394   1.404       .  A
C2393      C2398   1.410       .  A
C2393      H2403   1.085       .  S
C2394      C2395   1.414       .  A
C2394      C2399   1.492       .  S
C2395      C2396   1.408       .  A
C2395      C2400   1.521       .  S
C2396      C2397   1.408       .  A
C2396      H2401   1.083       .  S
C2397      C2398   1.423       .  A
C2398      C2402   1.513       .  S
C2399      C2404   1.415       .  A
C2399      C2408   1.398       .  A
C2400      F2416   1.382       .  S
C2400      F2417   1.379       .  S
C2400      F2418   1.385       .  S
C2402      F2413   1.383       .  S
C2402      F2414   1.384       .  S
C2402      F2415   1.373       .  S
C2404      C2405   1.416       .  A
C2404      C2409   1.515       .  S
C2405      C2406   1.403       .  A
C2405      H2410   1.081       .  S
C2406      C2407   1.422       .  A
C2407      C2408   1.408       .  A
C2407      C2411   1.511       .  S
C2408      H2412   1.083       .  S
C2409      F2422   1.379       .  S
C2409      F2423   1.383       .  S
C2409      F2424   1.379       .  S
C2411      F2419   1.379       .  S
C2411      F2420   1.382       .  S
C2411      F2421   1.385       .  S
C2425      C2426   1.407       .  A
C2425      C2430   1.417       .  A
C2425      H2435   1.081       .  S
C2426      C2427   1.418       .  A
C2426      C2431   1.499       .  S
C2427      C2428   1.405       .  A
C2427      C2432   1.522       .  S
C2428      C2429   1.406       .  A
C2428      H2433   1.082       .  S
C2429      C2430   1.422       .  A
C2430      C2434   1.520       .  S
C2431      C2436   1.418       .  A
C2431      C2440   1.403       .  A
C2432      F2448   1.381       .  S
C2432      F2449   1.382       .  S
C2432      F2450   1.382       .  S
C2434      F2445   1.382       .  S
C2434      F2446   1.385       .  S
C2434      F2447   1.377       .  S
C2436      C2437   1.409       .  A
C2436      C2441   1.520       .  S
C2437      C2438   1.407       .  A
C2437      H2442   1.083       .  S
C2438      C2439   1.422       .  A
C2439      C2440   1.408       .  A
C2439      C2443   1.511       .  S
C2440      H2444   1.084       .  S
C2441      F2454   1.384       .  S
C2441      F2455   1.382       .  S
C2441      F2456   1.383       .  S
C2443      F2451   1.382       .  S
C2443      F2452   1.373       .  S
C2443      F2453   1.383       .  S
C2457      C2458   1.405       .  A
C2457      C2462   1.410       .  A
C2457      H2467   1.080       .  S
C2458      C2459   1.428       .  A
C2458      C2463   1.516       .  S
C2459      C2460   1.413       .  A
C2459      C2464   1.522       .  S
C2460      C2461   1.406       .  A
C2460      H2465   1.084       .  S
C2461      C2462   1.420       .  A
C2462      C2466   1.507       .  S
C2463      C2468   1.431       .  A
C2463      C2472   1.407       .  A
C2464      F2480   1.382       .  S
C2464      F2481   1.382       .  S
C2464      F2482   1.385       .  S
C2466      F2477   1.381       .  S
C2466      F2478   1.382       .  S
C2466      F2479   1.377       .  S
C2468      C2469   1.414       .  A
C2468      C2473   1.522       .  S
C2469      C2470   1.399       .  A
C2469      H2474   1.079       .  S
C2470      C2471   1.422       .  A
C2471      C2472   1.411       .  A
C2471      C2475   1.521       .  S
C2472      H2476   1.079       .  S
C2473      F2486   1.384       .  S
C2473      F2487   1.380       .  S
C2473      F2488   1.383       .  S
C2475      F2483   1.378       .  S
C2475      F2484   1.383       .  S
C2475      F2485   1.384       .  S
C2489      C2490   1.400       .  A
C2489      C2494   1.406       .  A
C2489      H2499   1.085       .  S
C2490      C2491   1.418       .  A
C2490      C2495   1.497       .  S
C2491      C2492   1.414       .  A
C2491      C2496   1.517       .  S
C2492      C2493   1.407       .  A
C2492      H2497   1.082       .  S
C2493      C2494   1.427       .  A
C2494      C2498   1.521       .  S
C2495      C2500   1.421       .  A
C2495      C2504   1.402       .  A
C2496      F2512   1.383       .  S
C2496      F2513   1.380       .  S
C2496      F2514   1.385       .  S
C2498      F2509   1.381       .  S
C2498      F2510   1.383       .  S
C2498      F2511   1.380       .  S
C2500      C2501   1.413       .  A
C2500      C2505   1.515       .  S
C2501      C2502   1.403       .  A
C2501      H2506   1.085       .  S
C2502      C2503   1.423       .  A
C2503      C2504   1.410       .  A
C2503      C2507   1.517       .  S
C2504      H2508   1.083       .  S
C2505      F2518   1.383       .  S
C2505      F2519   1.380       .  S
C2505      F2520   1.381       .  S
C2507      F2515   1.385       .  S
C2507      F2516   1.380       .  S
C2507      F2517   1.378       .  S
C2521      C2522   1.394       .  A
C2521      C2526   1.404       .  A
C2521      H2531   1.083       .  S
C2522      C2523   1.413       .  A
C2522      C2527   1.489       .  S
C2523      C2524   1.416       .  A
C2523      C2528   1.515       .  S
C2524      C2525   1.412       .  A
C2524      H2529   1.082       .  S
C2525      C2526   1.438       .  A
C2526      C2530   1.529       .  S
C2527      C2532   1.417       .  A
C2527      C2536   1.408       .  A
C2528      F2544   1.383       .  S
C2528      F2545   1.382       .  S
C2528      F2546   1.384       .  S
C2530      F2541   1.385       .  S
C2530      F2542   1.383       .  S
C2530      F2543   1.380       .  S
C2532      C2533   1.402       .  A
C2532      C2537   1.517       .  S
C2533      C2534   1.403       .  A
C2533      H2538   1.085       .  S
C2534      C2535   1.416       .  A
C2535      C2536   1.413       .  A
C2535      C2539   1.516       .  S
C2536      H2540   1.083       .  S
C2537      F2550   1.383       .  S
C2537      F2551   1.382       .  S
C2537      F2552   1.382       .  S
C2539      F2547   1.379       .  S
C2539      F2548   1.383       .  S
C2539      F2549   1.384       .  S
C2553      C2554   1.402       .  A
C2553      C2558   1.411       .  A
C2553      H2563   1.083       .  S
C2554      C2555   1.414       .  A
C2554      C2559   1.480       .  S
C2555      C2556   1.400       .  A
C2555      C2560   1.518       .  S
C2556      C2557   1.405       .  A
C2556      H2561   1.084       .  S
C2557      C2558   1.422       .  A
C2558      C2562   1.518       .  S
C2559      C2564   1.411       .  A
C2559      C2568   1.392       .  A
C2560      F2576   1.383       .  S
C2560      F2577   1.383       .  S
C2560      F2578   1.384       .  S
C2562      F2573   1.383       .  S
C2562      F2574   1.385       .  S
C2562      F2575   1.382       .  S
C2564      C2565   1.411       .  A
C2564      C2569   1.516       .  S
C2565      C2566   1.411       .  A
C2565      H2570   1.082       .  S
C2566      C2567   1.435       .  A
C2567      C2568   1.398       .  A
C2567      C2571   1.529       .  S
C2568      H2572   1.084       .  S
C2569      F2582   1.385       .  S
C2569      F2583   1.382       .  S
C2569      F2584   1.382       .  S
C2571      F2579   1.385       .  S
C2571      F2580   1.383       .  S
C2571      F2581   1.382       .  S
C2585      C2586   1.404       .  A
C2585      C2590   1.406       .  A
C2585      H2595   1.085       .  S
C2586      C2587   1.414       .  A
C2586      C2591   1.478       .  S
C2587      C2588   1.397       .  A
C2587      C2592   1.515       .  S
C2588      C2589   1.402       .  A
C2588      H2593   1.086   1_554  S
C2589      C2590   1.417       .  A
C2590      C2594   1.513       .  S
C2591      C2596   1.412       .  A
C2591      C2600   1.397       .  A
C2592      F2608   1.380       .  S
C2592      F2609   1.382       .  S
C2592      F2610   1.383   1_554  S
C2594      F2605   1.381       .  S
C2594      F2606   1.384       .  S
C2594      F2607   1.378       .  S
C2596      C2597   1.403       .  A
C2596      C2601   1.521       .  S
C2597      C2598   1.410       .  A
C2597      H2602   1.082       .  S
C2598      C2599   1.427       .  A
C2599      C2600   1.408       .  A
C2599      C2603   1.515       .  S
C2600      H2604   1.083       .  S
C2601      F2614   1.384       .  S
C2601      F2615   1.383       .  S
C2601      F2616   1.381       .  S
C2603      F2611   1.382       .  S
C2603      F2612   1.383       .  S
C2603      F2613   1.385       .  S
C2617      C2618   1.401       .  A
C2617      C2622   1.409       .  A
C2617      H2627   1.085       .  S
C2618      C2619   1.418       .  A
C2618      C2623   1.501       .  S
C2619      C2620   1.412       .  A
C2619      C2624   1.516       .  S
C2620      C2621   1.405       .  A
C2620      H2625   1.076       .  S
C2621      C2622   1.427       .  A
C2622      C2626   1.518   1_554  S
C2623      C2628   1.422   1_554  A
C2623      C2632   1.405       .  A
C2624      F2640   1.385       .  S
C2624      F2641   1.381       .  S
C2624      F2642   1.378       .  S
C2626      F2637   1.384       .  S
C2626      F2638   1.383   1_556  S
C2626      F2639   1.375       .  S
C2628      C2629   1.410       .  A
C2628      C2633   1.520       .  S
C2629      C2630   1.405   1_556  A
C2629      H2634   1.085       .  S
C2630      C2631   1.422       .  A
C2631      C2632   1.415       .  A
C2631      C2635   1.516       .  S
C2632      H2636   1.082       .  S
C2633      F2646   1.384       .  S
C2633      F2647   1.383       .  S
C2633      F2648   1.382       .  S
C2635      F2643   1.377       .  S
C2635      F2644   1.382       .  S
C2635      F2645   1.385       .  S
C2649      C2650   1.405       .  A
C2649      C2654   1.417       .  A
C2649      H2659   1.082       .  S
C2650      C2651   1.424   1_556  A
C2650      C2655   1.512       .  S
C2651      C2652   1.415       .  A
C2651      C2656   1.521       .  S
C2652      C2653   1.406   1_554  A
C2652      H2657   1.083       .  S
C2653      C2654   1.425       .  A
C2654      C2658   1.517       .  S
C2655      C2660   1.422       .  A
C2655      C2664   1.400       .  A
C2656      F2672   1.380       .  S
C2656      F2673   1.383       .  S
C2656      F2674   1.385       .  S
C2658      F2669   1.385       .  S
C2658      F2670   1.377       .  S
C2658      F2671   1.382       .  S
C2660      C2661   1.418       .  A
C2660      C2665   1.517       .  S
C2661      C2662   1.409       .  A
C2661      H2666   1.077       .  S
C2662      C2663   1.426       .  A
C2663      C2664   1.412       .  A
C2663      C2667   1.514   1_556  S
C2664      H2668   1.083       .  S
C2665      F2678   1.385       .  S
C2665      F2679   1.382       .  S
C2665      F2680   1.381       .  S
C2667      F2675   1.372   1_554  S
C2667      F2676   1.382       .  S
C2667      F2677   1.385       .  S
C2681      C2682   1.408       .  A
C2681      C2686   1.412       .  A
C2681      H2691   1.083       .  S
C2682      C2683   1.422       .  A
C2682      C2687   1.497       .  S
C2683      C2684   1.406       .  A
C2683      C2688   1.519       .  S
C2684      C2685   1.404       .  A
C2684      H2689   1.085       .  S
C2685      C2686   1.419       .  A
C2686      C2690   1.516       .  S
C2687      C2692   1.416       .  A
C2687      C2696   1.400       .  A
C2688      F2704   1.384       .  S
C2688      F2705   1.377       .  S
C2688      F2706   1.384       .  S
C2690      F2701   1.380       .  S
C2690      F2702   1.384       .  S
C2690      F2703   1.382       .  S
C2692      C2693   1.412       .  A
C2692      C2697   1.518       .  S
C2693      C2694   1.411       .  A
C2693      H2698   1.082       .  S
C2694      C2695   1.425       .  A
C2695      C2696   1.407       .  A
C2695      C2699   1.508       .  S
C2696      H2700   1.085       .  S
C2697      F2710   1.384       .  S
C2697      F2711   1.383       .  S
C2697      F2712   1.378       .  S
C2699      F2707   1.384       .  S
C2699      F2708   1.371       .  S
C2699      F2709   1.381       .  S
C2713      C2714   1.399       .  A
C2713      C2718   1.402       .  A
C2713      H2723   1.085       .  S
C2714      C2715   1.420       .  A
C2714      C2719   1.494       .  S
C2715      C2716   1.416       .  A
C2715      C2720   1.516       .  S
C2716      C2717   1.414       .  A
C2716      H2721   1.081       .  S
C2717      C2718   1.424       .  A
C2718      C2722   1.513       .  S
C2719      C2724   1.419       .  A
C2719      C2728   1.402       .  A
C2720      F2736   1.381       .  S
C2720      F2737   1.382       .  S
C2720      F2738   1.380       .  S
C2722      F2733   1.382       .  S
C2722      F2734   1.386       .  S
C2722      F2735   1.367       .  S
C2724      C2725   1.407       .  A
C2724      C2729   1.518       .  S
C2725      C2726   1.408       .  A
C2725      H2730   1.084       .  S
C2726      C2727   1.427       .  A
C2727      C2728   1.408       .  A
C2727      C2731   1.522       .  S
C2728      H2732   1.082       .  S
C2729      F2742   1.384       .  S
C2729      F2743   1.383       .  S
C2729      F2744   1.379       .  S
C2731      F2739   1.385       .  S
C2731      F2740   1.383       .  S
C2731      F2741   1.384       .  S
C2745      C2746   1.402       .  A
C2745      C2750   1.404       .  A
C2745      H2755   1.084       .  S
C2746      C2747   1.431       .  A
C2746      C2751   1.514       .  S
C2747      C2748   1.417       .  A
C2747      C2752   1.519       .  S
C2748      C2749   1.402       .  A
C2748      H2753   1.082       .  S
C2749      C2750   1.426       .  A
C2750      C2754   1.517       .  S
C2751      C2756   1.429       .  A
C2751      C2760   1.403       .  A
C2752      F2768   1.383       .  S
C2752      F2769   1.382       .  S
C2752      F2770   1.384       .  S
C2754      F2765   1.384       .  S
C2754      F2766   1.383       .  S
C2754      F2767   1.377       .  S
C2756      C2757   1.412       .  A
C2756      C2761   1.520       .  S
C2757      C2758   1.404       .  A
C2757      H2762   1.084       .  S
C2758      C2759   1.430       .  A
C2759      C2760   1.412       .  A
C2759      C2763   1.522       .  S
C2760      H2764   1.079       .  S
C2761      F2774   1.385       .  S
C2761      F2775   1.382       .  S
C2761      F2776   1.381       .  S
C2763      F2771   1.385       .  S
C2763      F2772   1.371       .  S
C2763      F2773   1.382       .  S
C2777      C2778   1.402       .  A
C2777      C2782   1.405       .  A
C2777      H2787   1.083       .  S
C2778      C2779   1.420       .  A
C2778      C2783   1.492       .  S
C2779      C2780   1.417       .  A
C2779      C2784   1.516       .  S
C2780      C2781   1.415       .  A
C2780      H2785   1.080       .  S
C2781      C2782   1.417       .  A
C2782      C2786   1.514       .  S
C2783      C2788   1.417       .  A
C2783      C2792   1.399       .  A
C2784      F2800   1.382       .  S
C2784      F2801   1.382       .  S
C2784      F2802   1.381       .  S
C2786      F2797   1.384       .  S
C2786      F2798   1.382       .  S
C2786      F2799   1.371       .  S
C2788      C2789   1.410       .  A
C2788      C2793   1.521       .  S
C2789      C2790   1.410       .  A
C2789      H2794   1.082       .  S
C2790      C2791   1.429       .  A
C2791      C2792   1.410       .  A
C2791      C2795   1.521       .  S
C2792      H2796   1.082       .  S
C2793      F2806   1.385       .  S
C2793      F2807   1.381       .  S
C2793      F2808   1.382       .  S
C2795      F2803   1.383       .  S
C2795      F2804   1.383       .  S
C2795      F2805   1.385       .  S
C2809      C2810   1.395       .  A
C2809      C2814   1.406       .  A
C2809      H2819   1.085       .  S
C2810      C2811   1.416       .  A
C2810      C2815   1.493       .  S
C2811      C2812   1.413       .  A
C2811      C2816   1.519       .  S
C2812      C2813   1.410       .  A
C2812      H2817   1.075       .  S
C2813      C2814   1.433       .  A
C2814      C2818   1.516       .  S
C2815      C2820   1.419       .  A
C2815      C2824   1.398       .  A
C2816      F2832   1.382       .  S
C2816      F2833   1.380       .  S
C2816      F2834   1.383       .  S
C2818      F2829   1.384       .  S
C2818      F2830   1.384       .  S
C2818      F2831   1.369       .  S
C2820      C2821   1.416       .  A
C2820      C2825   1.516       .  S
C2821      C2822   1.406       .  A
C2821      H2826   1.083       .  S
C2822      C2823   1.417       .  A
C2823      C2824   1.406       .  A
C2823      C2827   1.510       .  S
C2824      H2828   1.084       .  S
C2825      F2838   1.384       .  S
C2825      F2839   1.382       .  S
C2825      F2840   1.381       .  S
C2827      F2835   1.383       .  S
C2827      F2836   1.382       .  S
C2827      F2837   1.378       .  S
C2841      C2842   1.402       .  A
C2841      C2846   1.414       .  A
C2841      H2851   1.082       .  S
C2842      C2843   1.423       .  A
C2842      C2847   1.505       .  S
C2843      C2844   1.410       .  A
C2843      C2848   1.515       .  S
C2844      C2845   1.405       .  A
C2844      H2849   1.084       .  S
C2845      C2846   1.431       .  A
C2846      C2850   1.522       .  S
C2847      C2852   1.414       .  A
C2847      C2856   1.398       .  A
C2848      F2864   1.383       .  S
C2848      F2865   1.376       .  S
C2848      F2866   1.384       .  S
C2850      F2861   1.385       .  S
C2850      F2862   1.380       .  S
C2850      F2863   1.384       .  S
C2852      C2853   1.416       .  A
C2852      C2857   1.519       .  S
C2853      C2854   1.420       .  A
C2853      H2858   1.076       .  S
C2854      C2855   1.444       .  A
C2855      C2856   1.415       .  A
C2855      C2859   1.519       .  S
C2856      H2860   1.085       .  S
C2857      F2870   1.381       .  S
C2857      F2871   1.382       .  S
C2857      F2872   1.382       .  S
C2859      F2867   1.385       .  S
C2859      F2868   1.366       .  S
C2859      F2869   1.380       .  S
C2873      C2874   1.397       .  A
C2873      C2878   1.404       .  A
C2873      H2883   1.083       .  S
C2874      C2875   1.411       .  A
C2874      C2879   1.482       .  S
C2875      C2876   1.407       .  A
C2875      C2880   1.518       .  S
C2876      C2877   1.411       .  A
C2876      H2881   1.082       .  S
C2877      C2878   1.431       .  A
C2878      C2882   1.525       .  S
C2879      C2884   1.413       .  A
C2879      C2888   1.404       .  A
C2880      F2896   1.382       .  S
C2880      F2897   1.382       .  S
C2880      F2898   1.384       .  S
C2882      F2893   1.382       .  S
C2882      F2894   1.385       .  S
C2882      F2895   1.383       .  S
C2884      C2885   1.396       .  A
C2884      C2889   1.515       .  S
C2885      C2886   1.400       .  A
C2885      H2890   1.083       .  S
C2886      C2887   1.418       .  A
C2887      C2888   1.408       .  A
C2887      C2891   1.515       .  S
C2888      H2892   1.084       .  S
C2889      F2902   1.385       .  S
C2889      F2903   1.381       .  S
C2889      F2904   1.381       .  S
C2891      F2899   1.382       .  S
C2891      F2900   1.378       .  S
C2891      F2901   1.384       .  S
C2905      C2906   1.395       .  A
C2905      C2910   1.398       .  A
C2905      H2915   1.084       .  S
C2906      C2907   1.411       .  A
C2906      C2911   1.460       .  S
C2907      C2908   1.397       .  A
C2907      C2912   1.519       .  S
C2908      C2909   1.406       .  A
C2908      H2913   1.083       .  S
C2909      C2910   1.421       .  A
C2910      C2914   1.520       .  S
C2911      C2916   1.415       .  A
C2911      C2920   1.395       .  A
C2912      F2928   1.378       .  S
C2912      F2929   1.381       .  S
C2912      F2930   1.385       .  S
C2914      F2925   1.385       .  S
C2914      F2926   1.383       .  S
C2914      F2927   1.383       .  S
C2916      C2917   1.401       .  A
C2916      C2921   1.518       .  S
C2917      C2918   1.398       .  A
C2917      H2922   1.083       .  S
C2918      C2919   1.415       .  A
C2919      C2920   1.391       .  A
C2919      C2923   1.518       .  S
C2920      H2924   1.086       .  S
C2921      F2934   1.385       .  S
C2921      F2935   1.382       .  S
C2921      F2936   1.379       .  S
C2923      F2931   1.384       .  S
C2923      F2932   1.379       .  S
C2923      F2933   1.381       .  S
C2937      C2938   1.396       .  A
C2937      C2942   1.399       .  A
C2937      H2947   1.085       .  S
C2938      C2939   1.412       .  A
C2938      C2943   1.481       .  S
C2939      C2940   1.406       .  A
C2939      C2944   1.519       .  S
C2940      C2941   1.411       .  A
C2940      H2945   1.083   1_455  S
C2941      C2942   1.430       .  A
C2942      C2946   1.523       .  S
C2943      C2948   1.418       .  A
C2943      C2952   1.402       .  A
C2944      F2960   1.381       .  S
C2944      F2961   1.383       .  S
C2944      F2962   1.385   1_455  S
C2946      F2957   1.383       .  S
C2946      F2958   1.383       .  S
C2946      F2959   1.367       .  S
C2948      C2949   1.397       .  A
C2948      C2953   1.522       .  S
C2949      C2950   1.400       .  A
C2949      H2954   1.081       .  S
C2950      C2951   1.418       .  A
C2951      C2952   1.407       .  A
C2951      C2955   1.518       .  S
C2952      H2956   1.082       .  S
C2953      F2966   1.382       .  S
C2953      F2967   1.379       .  S
C2953      F2968   1.383       .  S
C2955      F2963   1.381       .  S
C2955      F2964   1.382       .  S
C2955      F2965   1.385       .  S
C2969      C2970   1.400   1_455  A
C2969      C2974   1.410       .  A
C2969      H2979   1.083       .  S
C2970      C2971   1.419       .  A
C2970      C2975   1.503       .  S
C2971      C2972   1.417       .  A
C2971      C2976   1.510       .  S
C2972      C2973   1.402   1_655  A
C2972      H2977   1.083       .  S
C2973      C2974   1.421       .  A
C2974      C2978   1.511       .  S
C2975      C2980   1.417   1_655  A
C2975      C2984   1.408       .  A
C2976      F2992   1.382       .  S
C2976      F2993   1.380       .  S
C2976      F2994   1.381       .  S
C2978      F2989   1.384       .  S
C2978      F2990   1.379       .  S
C2978      F2991   1.383       .  S
C2980      C2981   1.409       .  A
C2980      C2985   1.521       .  S
C2981      C2982   1.407   1_455  A
C2981      H2986   1.079       .  S
C2982      C2983   1.420       .  A
C2983      C2984   1.416       .  A
C2983      C2987   1.514       .  S
C2984      H2988   1.084       .  S
C2985      F2998   1.385       .  S
C2985      F2999   1.381       .  S
C2985      F3000   1.381       .  S
C2987      F2995   1.383       .  S
C2987      F2996   1.378       .  S
C2987      F2997   1.384       .  S
C3001      C3002   1.406       .  A
C3001      C3006   1.414       .  A
C3001      H3011   1.083       .  S
C3002      C3003   1.410       .  A
C3002      C3007   1.485       .  S
C3003      C3004   1.401       .  A
C3003      C3008   1.521       .  S
C3004      C3005   1.412       .  A
C3004      H3009   1.083       .  S
C3005      C3006   1.419       .  A
C3006      C3010   1.514       .  S
C3007      C3012   1.414       .  A
C3007      C3016   1.403       .  A
C3008      F3024   1.382       .  S
C3008      F3025   1.383       .  S
C3008      F3026   1.385       .  S
C3010      F3021   1.383       .  S
C3010      F3022   1.385       .  S
C3010      F3023   1.378       .  S
C3012      C3013   1.402       .  A
C3012      C3017   1.519       .  S
C3013      C3014   1.410       .  A
C3013      H3018   1.085       .  S
C3014      C3015   1.426       .  A
C3015      C3016   1.409       .  A
C3015      C3019   1.514       .  S
C3016      H3020   1.085       .  S
C3017      F3030   1.384       .  S
C3017      F3031   1.383       .  S
C3017      F3032   1.381       .  S
C3019      F3027   1.381       .  S
C3019      F3028   1.375       .  S
C3019      F3029   1.383       .  S
C3033      C3034   1.399       .  A
C3033      C3038   1.406       .  A
C3033      H3043   1.083       .  S
C3034      C3035   1.422       .  A
C3034      C3039   1.496       .  S
C3035      C3036   1.414       .  A
C3035      C3040   1.520       .  S
C3036      C3037   1.403       .  A
C3036      H3041   1.082       .  S
C3037      C3038   1.420       .  A
C3038      C3042   1.511       .  S
C3039      C3044   1.416       .  A
C3039      C3048   1.396       .  A
C3040      F3056   1.381       .  S
C3040      F3057   1.383       .  S
C3040      F3058   1.384       .  S
C3042      F3053   1.379       .  S
C3042      F3054   1.384       .  S
C3042      F3055   1.382       .  S
C3044      C3045   1.408       .  A
C3044      C3049   1.521       .  S
C3045      C3046   1.409       .  A
C3045      H3050   1.076       .  S
C3046      C3047   1.434       .  A
C3047      C3048   1.409       .  A
C3047      C3051   1.517       .  S
C3048      H3052   1.084       .  S
C3049      F3062   1.385       .  S
C3049      F3063   1.382       .  S
C3049      F3064   1.383       .  S
C3051      F3059   1.365       .  S
C3051      F3060   1.384       .  S
C3051      F3061   1.384       .  S
C3065      C3066   1.398       .  A
C3065      C3070   1.405       .  A
C3065      H3075   1.085       .  S
C3066      C3067   1.410       .  A
C3066      C3071   1.482       .  S
C3067      C3068   1.407       .  A
C3067      C3072   1.517       .  S
C3068      C3069   1.407       .  A
C3068      H3073   1.081       .  S
C3069      C3070   1.422       .  A
C3070      C3074   1.511       .  S
C3071      C3076   1.412       .  A
C3071      C3080   1.400       .  A
C3072      F3088   1.383       .  S
C3072      F3089   1.380       .  S
C3072      F3090   1.384       .  S
C3074      F3085   1.384       .  S
C3074      F3086   1.376       .  S
C3074      F3087   1.381       .  S
C3076      C3077   1.400       .  A
C3076      C3081   1.524       .  S
C3077      C3078   1.408       .  A
C3077      H3082   1.080       .  S
C3078      C3079   1.428       .  A
C3079      C3080   1.413       .  A
C3079      C3083   1.520       .  S
C3080      H3084   1.083       .  S
C3081      F3094   1.385       .  S
C3081      F3095   1.382       .  S
C3081      F3096   1.382       .  S
C3083      F3091   1.385       .  S
C3083      F3092   1.383       .  S
C3083      F3093   1.383       .  S
C3097      C3098   1.400       .  A
C3097      C3102   1.403       .  A
C3097      H3107   1.083       .  S
C3098      C3099   1.418       .  A
C3098      C3103   1.471       .  S
C3099      C3100   1.396       .  A
C3099      C3104   1.522       .  S
C3100      C3101   1.404       .  A
C3100      H3105   1.085       .  S
C3101      C3102   1.421       .  A
C3102      C3106   1.520       .  S
C3103      C3108   1.413       .  A
C3103      C3112   1.407       .  A
C3104      F3120   1.380       .  S
C3104      F3121   1.383       .  S
C3104      F3122   1.384       .  S
C3106      F3117   1.385       .  S
C3106      F3118   1.384       .  S
C3106      F3119   1.382       .  S
C3108      C3109   1.392       .  A
C3108      C3113   1.519       .  S
C3109      C3110   1.405       .  A
C3109      H3114   1.085       .  S
C3110      C3111   1.412       .  A
C3111      C3112   1.406       .  A
C3111      C3115   1.516       .  S
C3112      H3116   1.083       .  S
C3113      F3126   1.383       .  S
C3113      F3127   1.384       .  S
C3113      F3128   1.381       .  S
C3115      F3123   1.383       .  S
C3115      F3124   1.380       .  S
C3115      F3125   1.385       .  S
C3129      C3130   1.400       .  A
C3129      C3134   1.411       .  A
C3129      H3139   1.085       .  S
C3130      C3131   1.411       .  A
C3130      C3135   1.486       .  S
C3131      C3132   1.405       .  A
C3131      C3136   1.517       .  S
C3132      C3133   1.407       .  A
C3132      H3137   1.080       .  S
C3133      C3134   1.429       .  A
C3134      C3138   1.517       .  S
C3135      C3140   1.413       .  A
C3135      C3144   1.398       .  A
C3136      F3152   1.383       .  S
C3136      F3153   1.382       .  S
C3136      F3154   1.380       .  S
C3138      F3149   1.383       .  S
C3138      F3150   1.383       .  S
C3138      F3151   1.373       .  S
C3140      C3141   1.410       .  A
C3140      C3145   1.521       .  S
C3141      C3142   1.408       .  A
C3141      H3146   1.078       .  S
C3142      C3143   1.424       .  A
C3143      C3144   1.403       .  A
C3143      C3147   1.521   1_655  S
C3144      H3148   1.085       .  S
C3145      F3158   1.384       .  S
C3145      F3159   1.382       .  S
C3145      F3160   1.380       .  S
C3147      F3155   1.384       .  S
C3147      F3156   1.377       .  S
C3147      F3157   1.383   1_455  S
C3161      C3162   1.397       .  A
C3161      C3166   1.407       .  A
C3161      H3171   1.085       .  S
C3162      C3163   1.414       .  A
C3162      C3167   1.496       .  S
C3163      C3164   1.414       .  A
C3163      C3168   1.518       .  S
C3164      C3165   1.412       .  A
C3164      H3169   1.079       .  S
C3165      C3166   1.429       .  A
C3166      C3170   1.517   1_655  S
C3167      C3172   1.413       .  A
C3167      C3176   1.404       .  A
C3168      F3184   1.383       .  S
C3168      F3185   1.381       .  S
C3168      F3186   1.384       .  S
C3170      F3181   1.383   1_455  S
C3170      F3182   1.384       .  S
C3170      F3183   1.373       .  S
C3172      C3173   1.407       .  A
C3172      C3177   1.516       .  S
C3173      C3174   1.407       .  A
C3173      H3178   1.083       .  S
C3174      C3175   1.424       .  A
C3175      C3176   1.417       .  A
C3175      C3179   1.514       .  S
C3176      H3180   1.083       .  S
C3177      F3190   1.385       .  S
C3177      F3191   1.382       .  S
C3177      F3192   1.381       .  S
C3179      F3187   1.382       .  S
C3179      F3188   1.375       .  S
C3179      F3189   1.385       .  S
C3193      C3194   1.398       .  A
C3193      C3198   1.412       .  A
C3193      H3203   1.083       .  S
C3194      C3195   1.420       .  A
C3194      C3199   1.501       .  S
C3195      C3196   1.413       .  A
C3195      C3200   1.516       .  S
C3196      C3197   1.406       .  A
C3196      H3201   1.083       .  S
C3197      C3198   1.429       .  A
C3198      C3202   1.517       .  S
C3199      C3204   1.418       .  A
C3199      C3208   1.396       .  A
C3200      F3216   1.381       .  S
C3200      F3217   1.382       .  S
C3200      F3218   1.385       .  S
C3202      F3213   1.382       .  S
C3202      F3214   1.383       .  S
C3202      F3215   1.379       .  S
C3204      C3205   1.418       .  A
C3204      C3209   1.516       .  S
C3205      C3206   1.411       .  A
C3205      H3210   1.081       .  S
C3206      C3207   1.431       .  A
C3207      C3208   1.406       .  A
C3207      C3211   1.514       .  S
C3208      H3212   1.085       .  S
C3209      F3222   1.384       .  S
C3209      F3223   1.382       .  S
C3209      F3224   1.382       .  S
C3211      F3219   1.382       .  S
C3211      F3220   1.368       .  S
C3211      F3221   1.384       .  S
C3225      C3226   1.404       .  A
C3225      C3230   1.413       .  A
C3225      H3235   1.082       .  S
C3226      C3227   1.423       .  A
C3226      C3231   1.512       .  S
C3227      C3228   1.413       .  A
C3227      C3232   1.521       .  S
C3228      C3229   1.406       .  A
C3228      H3233   1.080       .  S
C3229      C3230   1.424       .  A
C3230      C3234   1.510       .  S
C3231      C3236   1.424       .  A
C3231      C3240   1.400       .  A
C3232      F3248   1.380       .  S
C3232      F3249   1.384       .  S
C3232      F3250   1.384       .  S
C3234      F3245   1.384       .  S
C3234      F3246   1.383       .  S
C3234      F3247   1.373       .  S
C3236      C3237   1.419       .  A
C3236      C3241   1.514       .  S
C3237      C3238   1.404       .  A
C3237      H3242   1.083       .  S
C3238      C3239   1.427       .  A
C3239      C3240   1.411       .  A
C3239      C3243   1.517       .  S
C3240      H3244   1.082       .  S
C3241      F3254   1.379       .  S
C3241      F3255   1.380       .  S
C3241      F3256   1.380       .  S
C3243      F3251   1.385       .  S
C3243      F3252   1.376       .  S
C3243      F3253   1.381       .  S
C3257      C3258   1.406       .  A
C3257      C3262   1.416       .  A
C3257      H3267   1.084       .  S
C3258      C3259   1.414       .  A
C3258      C3263   1.501       .  S
C3259      C3260   1.408       .  A
C3259      C3264   1.515       .  S
C3260      C3261   1.407       .  A
C3260      H3265   1.083       .  S
C3261      C3262   1.425       .  A
C3262      C3266   1.515       .  S
C3263      C3268   1.416       .  A
C3263      C3272   1.407       .  A
C3264      F3280   1.382       .  S
C3264      F3281   1.383       .  S
C3264      F3282   1.384       .  S
C3266      F3277   1.384       .  S
C3266      F3278   1.383       .  S
C3266      F3279   1.376       .  S
C3268      C3269   1.409       .  A
C3268      C3273   1.520       .  S
C3269      C3270   1.407       .  A
C3269      H3274   1.080       .  S
C3270      C3271   1.420       .  A
C3271      C3272   1.414       .  A
C3271      C3275   1.515       .  S
C3272      H3276   1.084       .  S
C3273      F3286   1.385       .  S
C3273      F3287   1.382       .  S
C3273      F3288   1.383       .  S
C3275      F3283   1.380       .  S
C3275      F3284   1.379       .  S
C3275      F3285   1.382       .  S
C3289      C3290   1.398       .  A
C3289      C3294   1.401       .  A
C3289      H3299   1.085       .  S
C3290      C3291   1.418       .  A
C3290      C3295   1.490       .  S
C3291      C3292   1.413       .  A
C3291      C3296   1.517       .  S
C3292      C3293   1.407       .  A
C3292      H3297   1.083       .  S
C3293      C3294   1.424       .  A
C3294      C3298   1.519       .  S
C3295      C3300   1.420       .  A
C3295      C3304   1.399       .  A
C3296      F3312   1.383       .  S
C3296      F3313   1.380       .  S
C3296      F3314   1.385       .  S
C3298      F3309   1.382       .  S
C3298      F3310   1.381       .  S
C3298      F3311   1.377       .  S
C3300      C3301   1.414       .  A
C3300      C3305   1.516       .  S
C3301      C3302   1.404       .  A
C3301      H3306   1.083       .  S
C3302      C3303   1.423       .  A
C3303      C3304   1.405       .  A
C3303      C3307   1.516       .  S
C3304      H3308   1.084       .  S
C3305      F3318   1.381       .  S
C3305      F3319   1.382       .  S
C3305      F3320   1.382       .  S
C3307      F3315   1.385       .  S
C3307      F3316   1.383       .  S
C3307      F3317   1.378       .  S
C3321      C3322   1.403       .  A
C3321      C3326   1.415       .  A
C3321      H3331   1.082       .  S
C3322      C3323   1.419       .  A
C3322      C3327   1.506       .  S
C3323      C3324   1.418       .  A
C3323      C3328   1.517       .  S
C3324      C3325   1.407       .  A
C3324      H3329   1.077       .  S
C3325      C3326   1.426       .  A
C3326      C3330   1.516       .  S
C3327      C3332   1.416       .  A
C3327      C3336   1.402       .  A
C3328      F3344   1.381       .  S
C3328      F3345   1.381       .  S
C3328      F3346   1.382       .  S
C3330      F3341   1.385       .  S
C3330      F3342   1.375       .  S
C3330      F3343   1.382       .  S
C3332      C3333   1.416       .  A
C3332      C3337   1.518       .  S
C3333      C3334   1.413       .  A
C3333      H3338   1.083       .  S
C3334      C3335   1.429       .  A
C3335      C3336   1.414       .  A
C3335      C3339   1.511       .  S
C3336      H3340   1.085       .  S
C3337      F3350   1.384       .  S
C3337      F3351   1.382       .  S
C3337      F3352   1.383       .  S
C3339      F3347   1.381       .  S
C3339      F3348   1.374       .  S
C3339      F3349   1.382       .  S
C3353      C3354   1.402       .  A
C3353      C3358   1.407       .  A
C3353      H3363   1.084       .  S
C3354      C3355   1.425       .  A
C3354      C3359   1.504       .  S
C3355      C3356   1.411       .  A
C3355      C3360   1.522       .  S
C3356      C3357   1.407       .  A
C3356      H3361   1.083       .  S
C3357      C3358   1.429       .  A
C3358      C3362   1.521       .  S
C3359      C3364   1.426       .  A
C3359      C3368   1.399       .  A
C3360      F3376   1.383       .  S
C3360      F3377   1.382       .  S
C3360      F3378   1.382       .  S
C3362      F3373   1.384       .  S
C3362      F3374   1.382       .  S
C3362      F3375   1.378       .  S
C3364      C3365   1.412       .  A
C3364      C3369   1.519       .  S
C3365      C3366   1.407       .  A
C3365      H3370   1.084       .  S
C3366      C3367   1.433       .  A
C3367      C3368   1.406       .  A
C3367      C3371   1.525       .  S
C3368      H3372   1.082       .  S
C3369      F3382   1.384       .  S
C3369      F3383   1.382       .  S
C3369      F3384   1.379       .  S
C3371      F3379   1.385       .  S
C3371      F3380   1.382       .  S
C3371      F3381   1.384       .  S
C3385      C3386   1.392       .  A
C3385      C3390   1.397       .  A
C3385      H3395   1.084       .  S
C3386      C3387   1.409       .  A
C3386      C3391   1.473       .  S
C3387      C3388   1.408       .  A
C3387      C3392   1.516       .  S
C3388      C3389   1.410       .  A
C3388      H3393   1.082       .  S
C3389      C3390   1.437       .  A
C3390      C3394   1.534       .  S
C3391      C3396   1.418       .  A
C3391      C3400   1.399       .  A
C3392      F3408   1.382       .  S
C3392      F3409   1.383       .  S
C3392      F3410   1.384       .  S
C3394      F3405   1.385       .  S
C3394      F3406   1.379       .  S
C3394      F3407   1.380       .  S
C3396      C3397   1.402       .  A
C3396      C3401   1.517       .  S
C3397      C3398   1.398       .  A
C3397      H3402   1.084       .  S
C3398      C3399   1.416       .  A
C3399      C3400   1.402       .  A
C3399      C3403   1.516       .  S
C3400      H3404   1.084       .  S
C3401      F3414   1.383       .  S
C3401      F3415   1.382       .  S
C3401      F3416   1.382       .  S
C3403      F3411   1.381       .  S
C3403      F3412   1.383       .  S
C3403      F3413   1.385       .  S
C3417      C3418   1.390       .  A
C3417      C3422   1.398       .  A
C3417      H3427   1.082       .  S
C3418      C3419   1.408       .  A
C3418      C3423   1.474       .  S
C3419      C3420   1.408       .  A
C3419      C3424   1.517       .  S
C3420      C3421   1.413       .  A
C3420      H3425   1.082       .  S
C3421      C3422   1.430       .  A
C3422      C3426   1.515       .  S
C3423      C3428   1.413       .  A
C3423      C3432   1.403       .  A
C3424      F3440   1.383       .  S
C3424      F3441   1.383       .  S
C3424      F3442   1.384       .  S
C3426      F3437   1.382       .  S
C3426      F3438   1.385       .  S
C3426      F3439   1.379       .  S
C3428      C3429   1.395       .  A
C3428      C3433   1.525       .  S
C3429      C3430   1.406       .  A
C3429      H3434   1.083       .  S
C3430      C3431   1.417       .  A
C3431      C3432   1.409       .  A
C3431      C3435   1.517       .  S
C3432      H3436   1.083       .  S
C3433      F3446   1.384       .  S
C3433      F3447   1.381       .  S
C3433      F3448   1.382       .  S
C3435      F3443   1.384       .  S
C3435      F3444   1.381       .  S
C3435      F3445   1.383   1_556  S
C3449      C3450   1.397       .  A
C3449      C3454   1.399       .  A
C3449      H3459   1.084       .  S
C3450      C3451   1.410       .  A
C3450      C3455   1.468       .  S
C3451      C3452   1.402       .  A
C3451      C3456   1.518       .  S
C3452      C3453   1.410       .  A
C3452      H3457   1.082       .  S
C3453      C3454   1.424       .  A
C3454      C3458   1.521       .  S
C3455      C3460   1.418       .  A
C3455      C3464   1.393       .  A
C3456      F3472   1.382       .  S
C3456      F3473   1.383       .  S
C3456      F3474   1.385       .  S
C3458      F3469   1.382       .  S
C3458      F3470   1.385       .  S
C3458      F3471   1.380       .  S
C3460      C3461   1.406       .  A
C3460      C3465   1.518       .  S
C3461      C3462   1.401       .  A
C3461      H3466   1.083       .  S
C3462      C3463   1.417       .  A
C3463      C3464   1.395       .  A
C3463      C3467   1.511       .  S
C3464      H3468   1.084       .  S
C3465      F3478   1.382       .  S
C3465      F3479   1.383       .  S
C3465      F3480   1.382       .  S
C3467      F3475   1.377       .  S
C3467      F3476   1.382       .  S
C3467      F3477   1.385       .  S
C3481      C3482   1.413       .  A
C3481      C3486   1.416       .  A
C3481      H3491   1.083       .  S
C3482      C3483   1.423       .  A
C3482      C3487   1.505       .  S
C3483      C3484   1.404       .  A
C3483      C3488   1.521       .  S
C3484      C3485   1.408       .  A
C3484      H3489   1.085       .  S
C3485      C3486   1.418       .  A
C3486      C3490   1.516       .  S
C3487      C3492   1.424       .  A
C3487      C3496   1.402       .  A
C3488      F3504   1.384       .  S
C3488      F3505   1.377       .  S
C3488      F3506   1.383       .  S
C3490      F3501   1.378       .  S
C3490      F3502   1.385       .  S
C3490      F3503   1.383       .  S
C3492      C3493   1.414       .  A
C3492      C3497   1.518       .  S
C3493      C3494   1.407       .  A
C3493      H3498   1.082       .  S
C3494      C3495   1.425       .  A
C3495      C3496   1.405       .  A
C3495      C3499   1.516   1_556  S
C3496      H3500   1.085       .  S
C3497      F3510   1.383       .  S
C3497      F3511   1.381       .  S
C3497      F3512   1.381       .  S
C3499      F3507   1.383       .  S
C3499      F3508   1.374       .  S
C3499      F3509   1.383   1_554  S
C3513      C3514   1.411       .  A
C3513      C3518   1.410       .  A
C3513      H3523   1.083       .  S
C3514      C3515   1.422       .  A
C3514      C3519   1.503       .  S
C3515      C3516   1.408       .  A
C3515      C3520   1.518       .  S
C3516      C3517   1.401       .  A
C3516      H3521   1.078       .  S
C3517      C3518   1.417       .  A
C3518      C3522   1.521       .  S
C3519      C3524   1.424       .  A
C3519      C3528   1.398       .  A
C3520      F3536   1.381       .  S
C3520      F3537   1.382       .  S
C3520      F3538   1.384       .  S
C3522      F3533   1.385       .  S
C3522      F3534   1.382       .  S
C3522      F3535   1.377       .  S
C3524      C3525   1.415       .  A
C3524      C3529   1.516       .  S
C3525      C3526   1.406       .  A
C3525      H3530   1.083       .  S
C3526      C3527   1.431       .  A
C3527      C3528   1.402       .  A
C3527      C3531   1.516       .  S
C3528      H3532   1.085       .  S
C3529      F3542   1.382       .  S
C3529      F3543   1.384       .  S
C3529      F3544   1.381       .  S
C3531      F3539   1.383       .  S
C3531      F3540   1.368       .  S
C3531      F3541   1.384       .  S
C3545      C3546   1.404       .  A
C3545      C3550   1.412       .  A
C3545      H3555   1.083       .  S
C3546      C3547   1.411       .  A
C3546      C3551   1.482       .  S
C3547      C3548   1.403       .  A
C3547      C3552   1.523       .  S
C3548      C3549   1.411       .  A
C3548      H3553   1.083       .  S
C3549      C3550   1.419       .  A
C3550      C3554   1.515       .  S
C3551      C3556   1.413       .  A
C3551      C3560   1.397       .  A
C3552      F3568   1.381       .  S
C3552      F3569   1.380       .  S
C3552      F3570   1.384       .  S
C3554      F3565   1.384       .  S
C3554      F3566   1.382       .  S
C3554      F3567   1.377       .  S
C3556      C3557   1.406       .  A
C3556      C3561   1.520       .  S
C3557      C3558   1.408       .  A
C3557      H3562   1.080       .  S
C3558      C3559   1.429       .  A
C3559      C3560   1.403       .  A
C3559      C3563   1.521       .  S
C3560      H3564   1.085       .  S
C3561      F3574   1.385       .  S
C3561      F3575   1.383       .  S
C3561      F3576   1.380       .  S
C3563      F3571   1.384   1_556  S
C3563      F3572   1.375   1_556  S
C3563      F3573   1.384       .  S
C3577      C3578   1.405       .  A
C3577      C3582   1.415       .  A
C3577      H3587   1.084       .  S
C3578      C3579   1.418       .  A
C3578      C3583   1.504       .  S
C3579      C3580   1.409       .  A
C3579      C3584   1.520       .  S
C3580      C3581   1.409       .  A
C3580      H3585   1.082       .  S
C3581      C3582   1.427       .  A
C3582      C3586   1.515       .  S
C3583      C3588   1.417       .  A
C3583      C3592   1.407       .  A
C3584      F3600   1.381       .  S
C3584      F3601   1.383       .  S
C3584      F3602   1.385       .  S
C3586      F3597   1.383       .  S
C3586      F3598   1.382       .  S
C3586      F3599   1.376       .  S
C3588      C3589   1.410       .  A
C3588      C3593   1.521       .  S
C3589      C3590   1.411       .  A
C3589      H3594   1.083       .  S
C3590      C3591   1.423       .  A
C3591      C3592   1.417       .  A
C3591      C3595   1.517       .  S
C3592      H3596   1.083       .  S
C3593      F3606   1.383       .  S
C3593      F3607   1.384       .  S
C3593      F3608   1.382       .  S
C3595      F3603   1.379       .  S
C3595      F3604   1.382       .  S
C3595      F3605   1.385       .  S
C3609      C3610   1.404       .  A
C3609      C3614   1.415       .  A
C3609      H3619   1.080       .  S
C3610      C3611   1.426       .  A
C3610      C3615   1.522       .  S
C3611      C3612   1.420       .  A
C3611      C3616   1.519       .  S
C3612      C3613   1.408       .  A
C3612      H3617   1.080       .  S
C3613      C3614   1.425       .  A
C3614      C3618   1.519       .  S
C3615      C3620   1.425       .  A
C3615      C3624   1.404       .  A
C3616      F3632   1.380       .  S
C3616      F3633   1.384       .  S
C3616      F3634   1.383       .  S
C3618      F3629   1.385       .  S
C3618      F3630   1.371       .  S
C3618      F3631   1.383       .  S
C3620      C3621   1.419       .  A
C3620      C3625   1.521       .  S
C3621      C3622   1.411       .  A
C3621      H3626   1.083       .  S
C3622      C3623   1.430       .  A
C3623      C3624   1.416       .  A
C3623      C3627   1.517       .  S
C3624      H3628   1.083       .  S
C3625      F3638   1.385       .  S
C3625      F3639   1.381       .  S
C3625      F3640   1.383       .  S
C3627      F3635   1.374       .  S
C3627      F3636   1.383       .  S
C3627      F3637   1.382       .  S
C3641      C3642   1.397       .  A
C3641      C3646   1.405       .  A
C3641      H3651   1.085       .  S
C3642      C3643   1.421       .  A
C3642      C3647   1.501       .  S
C3643      C3644   1.418       .  A
C3643      C3648   1.517       .  S
C3644      C3645   1.409       .  A
C3644      H3649   1.081       .  S
C3645      C3646   1.427       .  A
C3646      C3650   1.513       .  S
C3647      C3652   1.423       .  A
C3647      C3656   1.398       .  A
C3648      F3664   1.381       .  S
C3648      F3665   1.382       .  S
C3648      F3666   1.384       .  S
C3650      F3661   1.384       .  S
C3650      F3662   1.383       .  S
C3650      F3663   1.370       .  S
C3652      C3653   1.417       .  A
C3652      C3657   1.516       .  S
C3653      C3654   1.405       .  A
C3653      H3658   1.083       .  S
C3654      C3655   1.427       .  A
C3655      C3656   1.407       .  A
C3655      C3659   1.518       .  S
C3656      H3660   1.083       .  S
C3657      F3670   1.385       .  S
C3657      F3671   1.381       .  S
C3657      F3672   1.381       .  S
C3659      F3667   1.385       .  S
C3659      F3668   1.378       .  S
C3659      F3669   1.382       .  S
C3673      C3674   1.398       .  A
C3673      C3678   1.403       .  A
C3673      H3683   1.084       .  S
C3674      C3675   1.407       .  A
C3674      C3679   1.471       .  S
C3675      C3676   1.403       .  A
C3675      C3680   1.519       .  S
C3676      C3677   1.412       .  A
C3676      H3681   1.082       .  S
C3677      C3678   1.426       .  A
C3678      C3682   1.522       .  S
C3679      C3684   1.413       .  A
C3679      C3688   1.402       .  A
C3680      F3696   1.382       .  S
C3680      F3697   1.381       .  S
C3680      F3698   1.384       .  S
C3682      F3693   1.381       .  S
C3682      F3694   1.385       .  S
C3682      F3695   1.383       .  S
C3684      C3685   1.400       .  A
C3684      C3689   1.520       .  S
C3685      C3686   1.400       .  A
C3685      H3690   1.084       .  S
C3686      C3687   1.417       .  A
C3687      C3688   1.402       .  A
C3687      C3691   1.515       .  S
C3688      H3692   1.085       .  S
C3689      F3702   1.385       .  S
C3689      F3703   1.382       .  S
C3689      F3704   1.381       .  S
C3691      F3699   1.382       .  S
C3691      F3700   1.378       .  S
C3691      F3701   1.384       .  S
C3705      C3706   1.395       .  A
C3705      C3710   1.398       .  A
C3705      H3715   1.084       .  S
C3706      C3707   1.417       .  A
C3706      C3711   1.472       .  S
C3707      C3708   1.403       .  A
C3707      C3712   1.519       .  S
C3708      C3709   1.399       .  A
C3708      H3713   1.083       .  S
C3709      C3710   1.416       .  A
C3710      C3714   1.512       .  S
C3711      C3716   1.417       .  A
C3711      C3720   1.398       .  A
C3712      F3728   1.382       .  S
C3712      F3729   1.382       .  S
C3712      F3730   1.385       .  S
C3714      F3725   1.377       .  S
C3714      F3726   1.385       .  S
C3714      F3727   1.383       .  S
C3716      C3717   1.397       .  A
C3716      C3721   1.521       .  S
C3717      C3718   1.400       .  A
C3717      H3722   1.083       .  S
C3718      C3719   1.420       .  A
C3719      C3720   1.402       .  A
C3719      C3723   1.520       .  S
C3720      H3724   1.083       .  S
C3721      F3734   1.385       .  S
C3721      F3735   1.382       .  S
C3721      F3736   1.381       .  S
C3723      F3731   1.382       .  S
C3723      F3732   1.384       .  S
C3723      F3733   1.385       .  S
C3737      C3738   1.395       .  A
C3737      C3742   1.397       .  A
C3737      H3747   1.084       .  S
C3738      C3739   1.408       .  A
C3738      C3743   1.467       .  S
C3739      C3740   1.405       .  A
C3739      C3744   1.517       .  S
C3740      C3741   1.410       .  A
C3740      H3745   1.082       .  S
C3741      C3742   1.427       .  A
C3742      C3746   1.523       .  S
C3743      C3748   1.416       .  A
C3743      C3752   1.398       .  A
C3744      F3760   1.383       .  S
C3744      F3761   1.383       .  S
C3744      F3762   1.384       .  S
C3746      F3757   1.385       .  S
C3746      F3758   1.379       .  S
C3746      F3759   1.382       .  S
C3748      C3749   1.402       .  A
C3748      C3753   1.517       .  S
C3749      C3750   1.400       .  A
C3749      H3754   1.083       .  S
C3750      C3751   1.414       .  A
C3751      C3752   1.397       .  A
C3751      C3755   1.514       .  S
C3752      H3756   1.084       .  S
C3753      F3766   1.383       .  S
C3753      F3767   1.383       .  S
C3753      F3768   1.382       .  S
C3755      F3763   1.381       .  S
C3755      F3764   1.383       .  S
C3755      F3765   1.385       .  S
C3769      C3770   1.410       .  A
C3769      C3774   1.413       .  A
C3769      H3779   1.083       .  S
C3770      C3771   1.418       .  A
C3770      C3775   1.492       .  S
C3771      C3772   1.402       .  A
C3771      C3776   1.523       .  S
C3772      C3773   1.410       .  A
C3772      H3777   1.084       .  S
C3773      C3774   1.420       .  A
C3774      C3778   1.519       .  S
C3775      C3780   1.421       .  A
C3775      C3784   1.393       .  A
C3776      F3792   1.384       .  S
C3776      F3793   1.379       .  S
C3776      F3794   1.383       .  S
C3778      F3789   1.379       .  S
C3778      F3790   1.385       .  S
C3778      F3791   1.383       .  S
C3780      C3781   1.414       .  A
C3780      C3785   1.513       .  S
C3781      C3782   1.407       .  A
C3781      H3786   1.084       .  S
C3782      C3783   1.434       .  A
C3783      C3784   1.397       .  A
C3783      C3787   1.515       .  S
C3784      H3788   1.086       .  S
C3785      F3798   1.383       .  S
C3785      F3799   1.381       .  S
C3785      F3800   1.380       .  S
C3787      F3795   1.365       .  S
C3787      F3796   1.384       .  S
C3787      F3797   1.384       .  S
C3801      C3802   1.404       .  A
C3801      C3806   1.408       .  A
C3801      H3811   1.085       .  S
C3802      C3803   1.419       .  A
C3802      C3807   1.494       .  S
C3803      C3804   1.407       .  A
C3803      C3808   1.519       .  S
C3804      C3805   1.407       .  A
C3804      H3809   1.085       .  S
C3805      C3806   1.424       .  A
C3806      C3810   1.517       .  S
C3807      C3812   1.423       .  A
C3807      C3816   1.399       .  A
C3808      F3824   1.384       .  S
C3808      F3825   1.379       .  S
C3808      F3826   1.380       .  S
C3810      F3821   1.384       .  S
C3810      F3822   1.373       .  S
C3810      F3823   1.381       .  S
C3812      C3813   1.410       .  A
C3812      C3817   1.516       .  S
C3813      C3814   1.403       .  A
C3813      H3818   1.084       .  S
C3814      C3815   1.426       .  A
C3815      C3816   1.401       .  A
C3815      C3819   1.519       .  S
C3816      H3820   1.085       .  S
C3817      F3830   1.384       .  S
C3817      F3831   1.381       .  S
C3817      F3832   1.383       .  S
C3819      F3827   1.384       .  S
C3819      F3828   1.374       .  S
C3819      F3829   1.384       .  S
C3833      C3834   1.396       .  A
C3833      C3838   1.404       .  A
C3833      H3843   1.084       .  S
C3834      C3835   1.419       .  A
C3834      C3839   1.492       .  S
C3835      C3836   1.417       .  A
C3835      C3840   1.516       .  S
C3836      C3837   1.407       .  A
C3836      H3841   1.083       .  S
C3837      C3838   1.424       .  A
C3838      C3842   1.515       .  S
C3839      C3844   1.417       .  A
C3839      C3848   1.395       .  A
C3840      F3856   1.382       .  S
C3840      F3857   1.381       .  S
C3840      F3858   1.384       .  S
C3842      F3853   1.379       .  S
C3842      F3854   1.385       .  S
C3842      F3855   1.382       .  S
C3844      C3845   1.415       .  A
C3844      C3849   1.519       .  S
C3845      C3846   1.409       .  A
C3845      H3850   1.075       .  S
C3846      C3847   1.425       .  A
C3847      C3848   1.405       .  A
C3847      C3851   1.513       .  S
C3848      H3852   1.083       .  S
C3849      F3862   1.385       .  S
C3849      F3863   1.382       .  S
C3849      F3864   1.381       .  S
C3851      F3859   1.376       .  S
C3851      F3860   1.380       .  S
C3851      F3861   1.385       .  S
C3865      C3866   1.403       .  A
C3865      C3870   1.414       .  A
C3865      H3875   1.085       .  S
C3866      C3867   1.422       .  A
C3866      C3871   1.515       .  S
C3867      C3868   1.419       .  A
C3867      C3872   1.518       .  S
C3868      C3869   1.410       .  A
C3868      H3873   1.082       .  S
C3869      C3870   1.431       .  A
C3870      C3874   1.521       .  S
C3871      C3876   1.425       .  A
C3871      C3880   1.404       .  A
C3872      F3888   1.385       .  S
C3872      F3889   1.381       .  S
C3872      F3890   1.383       .  S
C3874      F3885   1.384       .  S
C3874      F3886   1.383       .  S
C3874      F3887   1.377       .  S
C3876      C3877   1.415       .  A
C3876      C3881   1.520       .  S
C3877      C3878   1.407       .  A
C3877      H3882   1.083       .  S
C3878      C3879   1.430       .  A
C3879      C3880   1.415       .  A
C3879      C3883   1.520       .  S
C3880      H3884   1.084       .  S
C3881      F3894   1.379       .  S
C3881      F3895   1.380       .  S
C3881      F3896   1.385       .  S
C3883      F3891   1.376       .  S
C3883      F3892   1.382       .  S
C3883      F3893   1.382       .  S
C3897      C3898   1.397       .  A
C3897      C3902   1.403       .  A
C3897      H3907   1.085       .  S
C3898      C3899   1.417       .  A
C3898      C3903   1.487       .  S
C3899      C3900   1.412       .  A
C3899      C3904   1.519       .  S
C3900      C3901   1.406       .  A
C3900      H3905   1.082       .  S
C3901      C3902   1.425       .  A
C3902      C3906   1.521       .  S
C3903      C3908   1.417       .  A
C3903      C3912   1.396       .  A
C3904      F3920   1.382       .  S
C3904      F3921   1.381       .  S
C3904      F3922   1.384       .  S
C3906      F3917   1.383       .  S
C3906      F3918   1.383       .  S
C3906      F3919   1.377       .  S
C3908      C3909   1.412       .  A
C3908      C3913   1.513       .  S
C3909      C3910   1.404       .  A
C3909      H3914   1.082       .  S
C3910      C3911   1.420       .  A
C3911      C3912   1.402       .  A
C3911      C3915   1.515       .  S
C3912      H3916   1.084       .  S
C3913      F3926   1.385       .  S
C3913      F3927   1.383       .  S
C3913      F3928   1.377       .  S
C3915      F3923   1.385       .  S
C3915      F3924   1.382       .  S
C3915      F3925   1.379       .  S
C3929      C3930   1.400       .  A
C3929      C3934   1.407       .  A
C3929      H3939   1.081       .  S
C3930      C3931   1.420       .  A
C3930      C3935   1.489       .  S
C3931      C3932   1.406       .  A
C3931      C3936   1.520       .  S
C3932      C3933   1.403       .  A
C3932      H3937   1.085       .  S
C3933      C3934   1.424       .  A
C3934      C3938   1.519       .  S
C3935      C3940   1.418       .  A
C3935      C3944   1.396       .  A
C3936      F3952   1.382       .  S
C3936      F3953   1.383       .  S
C3936      F3954   1.385       .  S
C3938      F3949   1.385       .  S
C3938      F3950   1.373       .  S
C3938      F3951   1.382       .  S
C3940      C3941   1.409       .  A
C3940      C3945   1.519       .  S
C3941      C3942   1.406       .  A
C3941      H3946   1.077       .  S
C3942      C3943   1.426       .  A
C3943      C3944   1.400       .  A
C3943      C3947   1.515       .  S
C3944      H3948   1.085       .  S
C3945      F3958   1.385       .  S
C3945      F3959   1.380       .  S
C3945      F3960   1.382       .  S
C3947      F3955   1.382       .  S
C3947      F3956   1.371       .  S
C3947      F3957   1.384       .  S
C3961      C3962   1.405       .  A
C3961      C3966   1.414       .  A
C3961      H3971   1.084       .  S
C3962      C3963   1.414       .  A
C3962      C3967   1.500       .  S
C3963      C3964   1.407       .  A
C3963      C3968   1.520       .  S
C3964      C3965   1.408       .  A
C3964      H3969   1.074       .  S
C3965      C3966   1.424       .  A
C3966      C3970   1.510       .  S
C3967      C3972   1.415       .  A
C3967      C3976   1.406       .  A
C3968      F3984   1.382       .  S
C3968      F3985   1.383       .  S
C3968      F3986   1.385       .  S
C3970      F3981   1.383       .  S
C3970      F3982   1.375       .  S
C3970      F3983   1.372       .  S
C3972      C3973   1.409       .  A
C3972      C3977   1.522       .  S
C3973      C3974   1.412       .  A
C3973      H3978   1.083       .  S
C3974      C3975   1.422       .  A
C3975      C3976   1.418       .  A
C3975      C3979   1.514       .  S
C3976      H3980   1.083       .  S
C3977      F3990   1.385       .  S
C3977      F3991   1.382       .  S
C3977      F3992   1.383       .  S
C3979      F3987   1.385       .  S
C3979      F3988   1.376       .  S
C3979      F3989   1.381       .  S
C3993      C3994   1.397       .  A
C3993      C3998   1.407       .  A
C3993      H4003   1.083       .  S
C3994      C3995   1.413       .  A
C3994      C3999   1.472       .  S
C3995      C3996   1.398       .  A
C3995      C4000   1.520       .  S
C3996      C3997   1.401       .  A
C3996      H4001   1.083       .  S
C3997      C3998   1.427       .  A
C3998      C4002   1.521       .  S
C3999      C4004   1.413       .  A
C3999      C4008   1.395       .  A
C4000      F4016   1.381       .  S
C4000      F4017   1.379       .  S
C4000      F4018   1.383       .  S
C4002      F4013   1.383       .  S
C4002      F4014   1.385       .  S
C4002      F4015   1.383       .  S
C4004      C4005   1.402       .  A
C4004      C4009   1.511       .  S
C4005      C4006   1.397       .  A
C4005      H4010   1.082       .  S
C4006      C4007   1.418       .  A
C4007      C4008   1.398       .  A
C4007      C4011   1.515   1_554  S
C4008      H4012   1.084       .  S
C4009      F4022   1.382       .  S
C4009      F4023   1.383       .  S
C4009      F4024   1.379       .  S
C4011      F4019   1.385       .  S
C4011      F4020   1.380       .  S
C4011      F4021   1.381       .  S
C4025      C4026   1.399       .  A
C4025      C4030   1.406       .  A
C4025      H4035   1.083       .  S
C4026      C4027   1.408       .  A
C4026      C4031   1.464       .  S
C4027      C4028   1.393       .  A
C4027      C4032   1.524       .  S
C4028      C4029   1.407       .  A
C4028      H4033   1.079       .  S
C4029      C4030   1.423       .  A
C4030      C4034   1.520       .  S
C4031      C4036   1.409       .  A
C4031      C4040   1.400       .  A
C4032      F4048   1.382       .  S
C4032      F4049   1.382       .  S
C4032      F4050   1.384       .  S
C4034      F4045   1.385       .  S
C4034      F4046   1.382   1_455  S
C4034      F4047   1.382       .  S
C4036      C4037   1.390       .  A
C4036      C4041   1.518       .  S
C4037      C4038   1.404       .  A
C4037      H4042   1.083       .  S
C4038      C4039   1.419       .  A
C4039      C4040   1.405       .  A
C4039      C4043   1.517       .  S
C4040      H4044   1.083       .  S
C4041      F4054   1.384       .  S
C4041      F4055   1.378       .  S
C4041      F4056   1.382       .  S
C4043      F4051   1.383       .  S
C4043      F4052   1.380       .  S
C4043      F4053   1.385       .  S
C4057      C4058   1.404   1_455  A
C4057      C4062   1.413       .  A
C4057      H4067   1.081       .  S
C4058      C4059   1.422       .  A
C4058      C4063   1.507       .  S
C4059      C4060   1.415       .  A
C4059      C4064   1.518       .  S
C4060      C4061   1.405       .  A
C4060      H4065   1.084       .  S
C4061      C4062   1.422   1_655  A
C4062      C4066   1.513       .  S
C4063      C4068   1.419   1_655  A
C4063      C4072   1.409       .  A
C4064      F4080   1.382       .  S
C4064      F4081   1.381       .  S
C4064      F4082   1.383       .  S
C4066      F4077   1.385       .  S
C4066      F4078   1.378       .  S
C4066      F4079   1.379       .  S
C4068      C4069   1.409       .  A
C4068      C4073   1.520       .  S
C4069      C4070   1.407   1_455  A
C4069      H4074   1.080   1_554  S
C4070      C4071   1.420       .  A
C4071      C4072   1.418       .  A
C4071      C4075   1.514       .  S
C4072      H4076   1.083       .  S
C4073      F4086   1.385   1_554  S
C4073      F4087   1.381       .  S
C4073      F4088   1.383   1_455  S
C4075      F4083   1.384       .  S
C4075      F4084   1.378       .  S
C4075      F4085   1.381       .  S
C4089      C4090   1.404       .  A
C4089      C4094   1.416       .  A
C4089      H4099   1.083       .  S
C4090      C4091   1.414       .  A
C4090      C4095   1.498       .  S
C4091      C4092   1.407       .  A
C4091      C4096   1.517       .  S
C4092      C4093   1.408       .  A
C4092      H4097   1.083       .  S
C4093      C4094   1.425       .  A
C4094      C4098   1.516       .  S
C4095      C4100   1.416       .  A
C4095      C4104   1.404       .  A
C4096      F4112   1.381       .  S
C4096      F4113   1.380       .  S
C4096      F4114   1.380       .  S
C4098      F4109   1.380       .  S
C4098      F4110   1.385       .  S
C4098      F4111   1.378       .  S
C4100      C4101   1.408       .  A
C4100      C4105   1.520       .  S
C4101      C4102   1.408       .  A
C4101      H4106   1.080       .  S
C4102      C4103   1.423       .  A
C4103      C4104   1.411       .  A
C4103      C4107   1.515       .  S
C4104      H4108   1.084       .  S
C4105      F4118   1.384       .  S
C4105      F4119   1.381       .  S
C4105      F4120   1.383       .  S
C4107      F4115   1.380       .  S
C4107      F4116   1.380       .  S
C4107      F4117   1.382       .  S
C4121      C4122   1.399       .  A
C4121      C4126   1.410       .  A
C4121      H4131   1.083       .  S
C4122      C4123   1.421       .  A
C4122      C4127   1.501       .  S
C4123      C4124   1.415       .  A
C4123      C4128   1.517       .  S
C4124      C4125   1.405       .  A
C4124      H4129   1.081       .  S
C4125      C4126   1.426       .  A
C4126      C4130   1.521       .  S
C4127      C4132   1.420       .  A
C4127      C4136   1.395       .  A
C4128      F4144   1.382       .  S
C4128      F4145   1.383       .  S
C4128      F4146   1.384       .  S
C4130      F4141   1.385       .  S
C4130      F4142   1.374       .  S
C4130      F4143   1.375       .  S
C4132      C4133   1.419       .  A
C4132      C4137   1.513       .  S
C4133      C4134   1.405       .  A
C4133      H4138   1.080       .  S
C4134      C4135   1.426       .  A
C4135      C4136   1.407       .  A
C4135      C4139   1.511       .  S
C4136      H4140   1.083       .  S
C4137      F4150   1.384       .  S
C4137      F4151   1.381       .  S
C4137      F4152   1.381       .  S
C4139      F4147   1.385       .  S
C4139      F4148   1.382       .  S
C4139      F4149   1.378       .  S
C4153      C4154   1.394       .  A
C4153      C4158   1.397       .  A
C4153      H4163   1.084       .  S
C4154      C4155   1.414       .  A
C4154      C4159   1.472       .  S
C4155      C4156   1.407       .  A
C4155      C4160   1.517       .  S
C4156      C4157   1.403       .  A
C4156      H4161   1.083       .  S
C4157      C4158   1.418       .  A
C4158      C4162   1.512   1_554  S
C4159      C4164   1.413       .  A
C4159      C4168   1.396       .  A
C4160      F4176   1.383       .  S
C4160      F4177   1.381       .  S
C4160      F4178   1.384       .  S
C4162      F4173   1.377       .  S
C4162      F4174   1.385       .  S
C4162      F4175   1.383       .  S
C4164      C4165   1.398       .  A
C4164      C4169   1.520       .  S
C4165      C4166   1.405       .  A
C4165      H4170   1.083       .  S
C4166      C4167   1.425       .  A
C4167      C4168   1.406       .  A
C4167      C4171   1.516       .  S
C4168      H4172   1.083       .  S
C4169      F4182   1.384       .  S
C4169      F4183   1.382       .  S
C4169      F4184   1.379       .  S
C4171      F4179   1.383       .  S
C4171      F4180   1.383       .  S
C4171      F4181   1.385       .  S
C4185      C4186   1.403       .  A
C4185      C4190   1.403       .  A
C4185      H4195   1.085       .  S
C4186      C4187   1.414       .  A
C4186      C4191   1.470       .  S
C4187      C4188   1.396       .  A
C4187      C4192   1.519   1_556  S
C4188      C4189   1.403       .  A
C4188      H4193   1.085   1_556  S
C4189      C4190   1.416       .  A
C4190      C4194   1.513       .  S
C4191      C4196   1.407       .  A
C4191      C4200   1.395       .  A
C4192      F4208   1.384   1_554  S
C4192      F4209   1.382   1_554  S
C4192      F4210   1.383       .  S
C4194      F4205   1.383       .  S
C4194      F4206   1.382       .  S
C4194      F4207   1.378       .  S
C4196      C4197   1.404       .  A
C4196      C4201   1.517       .  S
C4197      C4198   1.413       .  A
C4197      H4202   1.082       .  S
C4198      C4199   1.431       .  A
C4199      C4200   1.397       .  A
C4199      C4203   1.523       .  S
C4200      H4204   1.086       .  S
C4201      F4214   1.385       .  S
C4201      F4215   1.382       .  S
C4201      F4216   1.383   1_556  S
C4203      F4211   1.384       .  S
C4203      F4212   1.370       .  S
C4203      F4213   1.384       .  S
C4217      C4218   1.407       .  A
C4217      C4222   1.413       .  A
C4217      H4227   1.083       .  S
C4218      C4219   1.410       .  A
C4218      C4223   1.486       .  S
C4219      C4220   1.401       .  A
C4219      C4224   1.516       .  S
C4220      C4221   1.405       .  A
C4220      H4225   1.082       .  S
C4221      C4222   1.414       .  A
C4222      C4226   1.514       .  S
C4223      C4228   1.413       .  A
C4223      C4232   1.403       .  A
C4224      F4240   1.383       .  S
C4224      F4241   1.382       .  S
C4224      F4242   1.383       .  S
C4226      F4237   1.379       .  S
C4226      F4238   1.385       .  S
C4226      F4239   1.382       .  S
C4228      C4229   1.399       .  A
C4228      C4233   1.522       .  S
C4229      C4230   1.409       .  A
C4229      H4234   1.081       .  S
C4230      C4231   1.426       .  A
C4231      C4232   1.414       .  A
C4231      C4235   1.519       .  S
C4232      H4236   1.083       .  S
C4233      F4246   1.384       .  S
C4233      F4247   1.379       .  S
C4233      F4248   1.382       .  S
C4235      F4243   1.382   1_565  S
C4235      F4244   1.384       .  S
C4235      F4245   1.385       .  S
C4249      C4250   1.396       .  A
C4249      C4254   1.398       .  A
C4249      H4259   1.084       .  S
C4250      C4251   1.418       .  A
C4250      C4255   1.475       .  S
C4251      C4252   1.407       .  A
C4251      C4256   1.520       .  S
C4252      C4253   1.401       .  A
C4252      H4257   1.083       .  S
C4253      C4254   1.418       .  A
C4254      C4258   1.516       .  S
C4255      C4260   1.409       .  A
C4255      C4264   1.395       .  A
C4256      F4272   1.382       .  S
C4256      F4273   1.381   1_565  S
C4256      F4274   1.385       .  S
C4258      F4269   1.385       .  S
C4258      F4270   1.380       .  S
C4258      F4271   1.382       .  S
C4260      C4261   1.407       .  A
C4260      C4265   1.517       .  S
C4261      C4262   1.412       .  A
C4261      H4266   1.082       .  S
C4262      C4263   1.431       .  A
C4263      C4264   1.399       .  A
C4263      C4267   1.526       .  S
C4264      H4268   1.081       .  S
C4265      F4278   1.384   1_565  S
C4265      F4279   1.382       .  S
C4265      F4280   1.382   1_565  S
C4267      F4275   1.383       .  S
C4267      F4276   1.384       .  S
C4267      F4277   1.385       .  S
C4281      C4282   1.405       .  A
C4281      C4286   1.416       .  A
C4281      H4291   1.082       .  S
C4282      C4283   1.420       .  A
C4282      C4287   1.508       .  S
C4283      C4284   1.415       .  A
C4283      C4288   1.518       .  S
C4284      C4285   1.408       .  A
C4284      H4289   1.083       .  S
C4285      C4286   1.425       .  A
C4286      C4290   1.520       .  S
C4287      C4292   1.417       .  A
C4287      C4296   1.405       .  A
C4288      F4304   1.382       .  S
C4288      F4305   1.384       .  S
C4288      F4306   1.384       .  S
C4290      F4301   1.383       .  S
C4290      F4302   1.385       .  S
C4290      F4303   1.383       .  S
C4292      C4293   1.412       .  A
C4292      C4297   1.518       .  S
C4293      C4294   1.411       .  A
C4293      H4298   1.082       .  S
C4294      C4295   1.429       .  A
C4295      C4296   1.416       .  A
C4295      C4299   1.514       .  S
C4296      H4300   1.084       .  S
C4297      F4310   1.385       .  S
C4297      F4311   1.381       .  S
C4297      F4312   1.383       .  S
C4299      F4307   1.382       .  S
C4299      F4308   1.374       .  S
C4299      F4309   1.383       .  S
C4313      C4314   1.407       .  A
C4313      C4318   1.418       .  A
C4313      H4323   1.079       .  S
C4314      C4315   1.424       .  A
C4314      C4319   1.509       .  S
C4315      C4316   1.407       .  A
C4315      C4320   1.519       .  S
C4316      C4317   1.402       .  A
C4316      H4321   1.085       .  S
C4317      C4318   1.424       .  A
C4318      C4322   1.518       .  S
C4319      C4324   1.422       .  A
C4319      C4328   1.398       .  A
C4320      F4336   1.382       .  S
C4320      F4337   1.381       .  S
C4320      F4338   1.385       .  S
C4322      F4333   1.384       .  S
C4322      F4334   1.378       .  S
C4322      F4335   1.382       .  S
C4324      C4325   1.418       .  A
C4324      C4329   1.515       .  S
C4325      C4326   1.409       .  A
C4325      H4330   1.078       .  S
C4326      C4327   1.430       .  A
C4327      C4328   1.405       .  A
C4327      C4331   1.514       .  S
C4328      H4332   1.085       .  S
C4329      F4342   1.385       .  S
C4329      F4343   1.381       .  S
C4329      F4344   1.377       .  S
C4331      F4339   1.384       .  S
C4331      F4340   1.366       .  S
C4331      F4341   1.384       .  S
C4345      C4346   1.398   1_556  A
C4345      C4350   1.407       .  A
C4345      H4355   1.085       .  S
C4346      C4347   1.420       .  A
C4346      C4351   1.505       .  S
C4347      C4348   1.420       .  A
C4347      C4352   1.515       .  S
C4348      C4349   1.409       .  A
C4348      H4353   1.082       .  S
C4349      C4350   1.430   1_554  A
C4350      C4354   1.519   1_565  S
C4351      C4356   1.423       .  A
C4351      C4360   1.403   1_554  A
C4352      F4368   1.383       .  S
C4352      F4369   1.381       .  S
C4352      F4370   1.384       .  S
C4354      F4365   1.383       .  S
C4354      F4366   1.383       .  S
C4354      F4367   1.374       .  S
C4356      C4357   1.418       .  A
C4356      C4361   1.518       .  S
C4357      C4358   1.407       .  A
C4357      H4362   1.085       .  S
C4358      C4359   1.426   1_554  A
C4359      C4360   1.414       .  A
C4359      C4363   1.519       .  S
C4360      H4364   1.083       .  S
C4361      F4374   1.383       .  S
C4361      F4375   1.381       .  S
C4361      F4376   1.382       .  S
C4363      F4371   1.385       .  S
C4363      F4372   1.382       .  S
C4363      F4373   1.377       .  S
C4377      C4378   1.404       .  A
C4377      C4382   1.410       .  A
C4377      H4387   1.083       .  S
C4378      C4379   1.419       .  A
C4378      C4383   1.478       .  S
C4379      C4380   1.396       .  A
C4379      C4384   1.523       .  S
C4380      C4381   1.401       .  A
C4380      H4385   1.085       .  S
C4381      C4382   1.419       .  A
C4382      C4386   1.519       .  S
C4383      C4388   1.415       .  A
C4383      C4392   1.398       .  A
C4384      F4400   1.383       .  S
C4384      F4401   1.379       .  S
C4384      F4402   1.383       .  S
C4386      F4397   1.384       .  S
C4386      F4398   1.383       .  S
C4386      F4399   1.384       .  S
C4388      C4389   1.410       .  A
C4388      C4393   1.518       .  S
C4389      C4390   1.403       .  A
C4389      H4394   1.083       .  S
C4390      C4391   1.418       .  A
C4391      C4392   1.402       .  A
C4391      C4395   1.513   1_455  S
C4392      H4396   1.084       .  S
C4393      F4406   1.384       .  S
C4393      F4407   1.382       .  S
C4393      F4408   1.383       .  S
C4395      F4403   1.385       .  S
C4395      F4404   1.383       .  S
C4395      F4405   1.381       .  S
C4409      C4410   1.401       .  A
C4409      C4414   1.408       .  A
C4409      H4419   1.083       .  S
C4410      C4411   1.415       .  A
C4410      C4415   1.474       .  S
C4411      C4412   1.397       .  A
C4411      C4416   1.520       .  S
C4412      C4413   1.401       .  A
C4412      H4417   1.084       .  S
C4413      C4414   1.419       .  A
C4414      C4418   1.518       .  S
C4415      C4420   1.413       .  A
C4415      C4424   1.397       .  A
C4416      F4432   1.382       .  S
C4416      F4433   1.378       .  S
C4416      F4434   1.385       .  S
C4418      F4429   1.382       .  S
C4418      F4430   1.384       .  S
C4418      F4431   1.384       .  S
C4420      C4421   1.403       .  A
C4420      C4425   1.517       .  S
C4421      C4422   1.399       .  A
C4421      H4426   1.079       .  S
C4422      C4423   1.418       .  A
C4423      C4424   1.404       .  A
C4423      C4427   1.516   1_655  S
C4424      H4428   1.083   1_655  S
C4425      F4438   1.384       .  S
C4425      F4439   1.382       .  S
C4425      F4440   1.382       .  S
C4427      F4435   1.385       .  S
C4427      F4436   1.383       .  S
C4427      F4437   1.375       .  S
C4441      C4442   1.399       .  A
C4441      C4446   1.404       .  A
C4441      H4451   1.082       .  S
C4442      C4443   1.417       .  A
C4442      C4447   1.476       .  S
C4443      C4444   1.395       .  A
C4443      C4448   1.517       .  S
C4444      C4445   1.395       .  A
C4444      H4449   1.080       .  S
C4445      C4446   1.418       .  A
C4446      C4450   1.516       .  S
C4447      C4452   1.411       .  A
C4447      C4456   1.397       .  A
C4448      F4464   1.383       .  S
C4448      F4465   1.382       .  S
C4448      F4466   1.383       .  S
C4450      F4461   1.385       .  S
C4450      F4462   1.379       .  S
C4450      F4463   1.383       .  S
C4452      C4453   1.406       .  A
C4452      C4457   1.518       .  S
C4453      C4454   1.410       .  A
C4453      H4458   1.082       .  S
C4454      C4455   1.430       .  A
C4455      C4456   1.398       .  A
C4455      C4459   1.525       .  S
C4456      H4460   1.083       .  S
C4457      F4470   1.384       .  S
C4457      F4471   1.381       .  S
C4457      F4472   1.384       .  S
C4459      F4467   1.372       .  S
C4459      F4468   1.382       .  S
C4459      F4469   1.385       .  S
C4473      C4474   1.398       .  A
C4473      C4478   1.400       .  A
C4473      H4483   1.084       .  S
C4474      C4475   1.420       .  A
C4474      C4479   1.480       .  S
C4475      C4476   1.408       .  A
C4475      C4480   1.520       .  S
C4476      C4477   1.400       .  A
C4476      H4481   1.082       .  S
C4477      C4478   1.416       .  A
C4478      C4482   1.514       .  S
C4479      C4484   1.412       .  A
C4479      C4488   1.397       .  A
C4480      F4496   1.381       .  S
C4480      F4497   1.381       .  S
C4480      F4498   1.385       .  S
C4482      F4493   1.385       .  S
C4482      F4494   1.379       .  S
C4482      F4495   1.383       .  S
C4484      C4485   1.409       .  A
C4484      C4489   1.518       .  S
C4485      C4486   1.412       .  A
C4485      H4490   1.082       .  S
C4486      C4487   1.430       .  A
C4487      C4488   1.402       .  A
C4487      C4491   1.524       .  S
C4488      H4492   1.083       .  S
C4489      F4502   1.385       .  S
C4489      F4503   1.382       .  S
C4489      F4504   1.382       .  S
C4491      F4499   1.385       .  S
C4491      F4500   1.382       .  S
C4491      F4501   1.384       .  S
C4505      C4506   1.405       .  A
C4505      C4510   1.416       .  A
C4505      H4515   1.082       .  S
C4506      C4507   1.422       .  A
C4506      C4511   1.512       .  S
C4507      C4508   1.413       .  A
C4507      C4512   1.520       .  S
C4508      C4509   1.407       .  A
C4508      H4513   1.084       .  S
C4509      C4510   1.427       .  A
C4510      C4514   1.516       .  S
C4511      C4516   1.424       .  A
C4511      C4520   1.402       .  A
C4512      F4528   1.381       .  S
C4512      F4529   1.383       .  S
C4512      F4530   1.385       .  S
C4514      F4525   1.383       .  S
C4514      F4526   1.380       .  S
C4514      F4527   1.376       .  S
C4516      C4517   1.418       .  A
C4516      C4521   1.519       .  S
C4517      C4518   1.410       .  A
C4517      H4522   1.079       .  S
C4518      C4519   1.424       .  A
C4519      C4520   1.409       .  A
C4519      C4523   1.515       .  S
C4520      H4524   1.084       .  S
C4521      F4534   1.383       .  S
C4521      F4535   1.385       .  S
C4521      F4536   1.381       .  S
C4523      F4531   1.382       .  S
C4523      F4532   1.376       .  S
C4523      F4533   1.384       .  S
C4537      C4538   1.409       .  A
C4537      C4542   1.419       .  A
C4537      H4547   1.079       .  S
C4538      C4539   1.427       .  A
C4538      C4543   1.522       .  S
C4539      C4540   1.415       .  A
C4539      C4544   1.523       .  S
C4540      C4541   1.408       .  A
C4540      H4545   1.080       .  S
C4541      C4542   1.426       .  A
C4542      C4546   1.522       .  S
C4543      C4548   1.428   1_455  A
C4543      C4552   1.411       .  A
C4544      F4560   1.382       .  S
C4544      F4561   1.381       .  S
C4544      F4562   1.384       .  S
C4546      F4557   1.383   1_455  S
C4546      F4558   1.385       .  S
C4546      F4559   1.379       .  S
C4548      C4549   1.412       .  A
C4548      C4553   1.522       .  S
C4549      C4550   1.404   1_655  A
C4549      H4554   1.083       .  S
C4550      C4551   1.419       .  A
C4551      C4552   1.416       .  A
C4551      C4555   1.513       .  S
C4552      H4556   1.080       .  S
C4553      F4566   1.385       .  S
C4553      F4567   1.381       .  S
C4553      F4568   1.383       .  S
C4555      F4563   1.382       .  S
C4555      F4564   1.377       .  S
C4555      F4565   1.383       .  S
C4569      C4570   1.399       .  A
C4569      C4574   1.410       .  A
C4569      H4579   1.083       .  S
C4570      C4571   1.420       .  A
C4570      C4575   1.505       .  S
C4571      C4572   1.415       .  A
C4571      C4576   1.520       .  S
C4572      C4573   1.410       .  A
C4572      H4577   1.083       .  S
C4573      C4574   1.431       .  A
C4574      C4578   1.521       .  S
C4575      C4580   1.422       .  A
C4575      C4584   1.403       .  A
C4576      F4592   1.381       .  S
C4576      F4593   1.383       .  S
C4576      F4594   1.384       .  S
C4578      F4589   1.381       .  S
C4578      F4590   1.375       .  S
C4578      F4591   1.383       .  S
C4580      C4581   1.413       .  A
C4580      C4585   1.519       .  S
C4581      C4582   1.404       .  A
C4581      H4586   1.079       .  S
C4582      C4583   1.424       .  A
C4583      C4584   1.409       .  A
C4583      C4587   1.520       .  S
C4584      H4588   1.084       .  S
C4585      F4598   1.384       .  S
C4585      F4599   1.379       .  S
C4585      F4600   1.383       .  S
C4587      F4595   1.382       .  S
C4587      F4596   1.380       .  S
C4587      F4597   1.384       .  S
C4601      C4602   1.401       .  A
C4601      C4606   1.409       .  A
C4601      H4611   1.083       .  S
C4602      C4603   1.414       .  A
C4602      C4607   1.487       .  S
C4603      C4604   1.408       .  A
C4603      C4608   1.521       .  S
C4604      C4605   1.411       .  A
C4604      H4609   1.072       .  S
C4605      C4606   1.421       .  A
C4606      C4610   1.517   1_565  S
C4607      C4612   1.414       .  A
C4607      C4616   1.400       .  A
C4608      F4624   1.382       .  S
C4608      F4625   1.381       .  S
C4608      F4626   1.383       .  S
C4610      F4621   1.384       .  S
C4610      F4622   1.382       .  S
C4610      F4623   1.374       .  S
C4612      C4613   1.408       .  A
C4612      C4617   1.521       .  S
C4613      C4614   1.411       .  A
C4613      H4618   1.082       .  S
C4614      C4615   1.424       .  A
C4615      C4616   1.409       .  A
C4615      C4619   1.519       .  S
C4616      H4620   1.083       .  S
C4617      F4630   1.385       .  S
C4617      F4631   1.382   1_565  S
C4617      F4632   1.382       .  S
C4619      F4627   1.383       .  S
C4619      F4628   1.383       .  S
C4619      F4629   1.385       .  S
C4633      C4634   1.406       .  A
C4633      C4638   1.410       .  A
C4633      H4643   1.084       .  S
C4634      C4635   1.414       .  A
C4634      C4639   1.488       .  S
C4635      C4636   1.403       .  A
C4635      C4640   1.520       .  S
C4636      C4637   1.405       .  A
C4636      H4641   1.079   1_545  S
C4637      C4638   1.420       .  A
C4638      C4642   1.514       .  S
C4639      C4644   1.416       .  A
C4639      C4648   1.401       .  A
C4640      F4656   1.382   1_545  S
C4640      F4657   1.383       .  S
C4640      F4658   1.385   1_545  S
C4642      F4653   1.383       .  S
C4642      F4654   1.383       .  S
C4642      F4655   1.377       .  S
C4644      C4645   1.405       .  A
C4644      C4649   1.517       .  S
C4645      C4646   1.405       .  A
C4645      H4650   1.085       .  S
C4646      C4647   1.427       .  A
C4647      C4648   1.409       .  A
C4647      C4651   1.517       .  S
C4648      H4652   1.084       .  S
C4649      F4662   1.384       .  S
C4649      F4663   1.383       .  S
C4649      F4664   1.381       .  S
C4651      F4659   1.382       .  S
C4651      F4660   1.373       .  S
C4651      F4661   1.383       .  S
C4665      C4666   1.408       .  A
C4665      C4670   1.409       .  A
C4665      H4675   1.085       .  S
C4666      C4667   1.425   1_565  A
C4666      C4671   1.506       .  S
C4667      C4668   1.409       .  A
C4667      C4672   1.520       .  S
C4668      C4669   1.406   1_545  A
C4668      H4673   1.085       .  S
C4669      C4670   1.423       .  A
C4670      C4674   1.516       .  S
C4671      C4676   1.423       .  A
C4671      C4680   1.407       .  A
C4672      F4688   1.379       .  S
C4672      F4689   1.383       .  S
C4672      F4690   1.384       .  S
C4674      F4685   1.375       .  S
C4674      F4686   1.381       .  S
C4674      F4687   1.384       .  S
C4676      C4677   1.412       .  A
C4676      C4681   1.524       .  S
C4677      C4678   1.412       .  A
C4677      H4682   1.078       .  S
C4678      C4679   1.423       .  A
C4679      C4680   1.412       .  A
C4679      C4683   1.519   1_455  S
C4680      H4684   1.082   1_565  S
C4681      F4694   1.379       .  S
C4681      F4695   1.379       .  S
C4681      F4696   1.383       .  S
C4683      F4691   1.379   1_565  S
C4683      F4692   1.385   1_565  S
C4683      F4693   1.379       .  S
C4697      C4698   1.404       .  A
C4697      C4702   1.412       .  A
C4697      H4707   1.085       .  S
C4698      C4699   1.414   1_455  A
C4698      C4703   1.495       .  S
C4699      C4700   1.409       .  A
C4699      C4704   1.521       .  S
C4700      C4701   1.408   1_655  A
C4700      H4705   1.079       .  S
C4701      C4702   1.422       .  A
C4702      C4706   1.512       .  S
C4703      C4708   1.419       .  A
C4703      C4712   1.399   1_455  A
C4704      F4720   1.382       .  S
C4704      F4721   1.380       .  S
C4704      F4722   1.385       .  S
C4706      F4717   1.383       .  S
C4706      F4718   1.383       .  S
C4706      F4719   1.375       .  S
C4708      C4709   1.415       .  A
C4708      C4713   1.517       .  S
C4709      C4710   1.405   1_455  A
C4709      H4714   1.081       .  S
C4710      C4711   1.422       .  A
C4711      C4712   1.408       .  A
C4711      C4715   1.514       .  S
C4712      H4716   1.083       .  S
C4713      F4726   1.384       .  S
C4713      F4727   1.381       .  S
C4713      F4728   1.380       .  S
C4715      F4723   1.381       .  S
C4715      F4724   1.382       .  S
C4715      F4725   1.384       .  S
C4729      C4730   1.406   1_455  A
C4729      C4734   1.411       .  A
C4729      H4739   1.084       .  S
C4730      C4731   1.420       .  A
C4730      C4735   1.500       .  S
C4731      C4732   1.420       .  A
C4731      C4736   1.516       .  S
C4732      C4733   1.417       .  A
C4732      H4737   1.081       .  S
C4733      C4734   1.414   1_655  A
C4734      C4738   1.516       .  S
C4735      C4740   1.419   1_655  A
C4735      C4744   1.407       .  A
C4736      F4752   1.380       .  S
C4736      F4753   1.383       .  S
C4736      F4754   1.384       .  S
C4738      F4749   1.382       .  S
C4738      F4750   1.377       .  S
C4738      F4751   1.377       .  S
C4740      C4741   1.407       .  A
C4740      C4745   1.517       .  S
C4741      C4742   1.409   1_455  A
C4741      H4746   1.084       .  S
C4742      C4743   1.423       .  A
C4743      C4744   1.414       .  A
C4743      C4747   1.518       .  S
C4744      H4748   1.083       .  S
C4745      F4758   1.384       .  S
C4745      F4759   1.384       .  S
C4745      F4760   1.377       .  S
C4747      F4755   1.384       .  S
C4747      F4756   1.381       .  S
C4747      F4757   1.379       .  S
C4761      C4762   1.403       .  A
C4761      C4766   1.404       .  A
C4761      H4771   1.083       .  S
C4762      C4763   1.406       .  A
C4762      C4767   1.465       .  S
C4763      C4764   1.395       .  A
C4763      C4768   1.521       .  S
C4764      C4765   1.405       .  A
C4764      H4769   1.080       .  S
C4765      C4766   1.411       .  A
C4766      C4770   1.514       .  S
C4767      C4772   1.412       .  A
C4767      C4776   1.393       .  A
C4768      F4784   1.383       .  S
C4768      F4785   1.381       .  S
C4768      F4786   1.383       .  S
C4770      F4781   1.384       .  S
C4770      F4782   1.383       .  S
C4770      F4783   1.376       .  S
C4772      C4773   1.398       .  A
C4772      C4777   1.525       .  S
C4773      C4774   1.406       .  A
C4773      H4778   1.082       .  S
C4774      C4775   1.432       .  A
C4775      C4776   1.404       .  A
C4775      C4779   1.525   1_655  S
C4776      H4780   1.083       .  S
C4777      F4790   1.384       .  S
C4777      F4791   1.382       .  S
C4777      F4792   1.381       .  S
C4779      F4787   1.385       .  S
C4779      F4788   1.384       .  S
C4779      F4789   1.383   1_455  S
C4793      C4794   1.396       .  A
C4793      C4798   1.400       .  A
C4793      H4803   1.084       .  S
C4794      C4795   1.415       .  A
C4794      C4799   1.478       .  S
C4795      C4796   1.408   1_545  A
C4795      C4800   1.513   1_545  S
C4796      C4797   1.406   1_565  A
C4796      H4801   1.085       .  S
C4797      C4798   1.415       .  A
C4798      C4802   1.495       .  S
C4799      C4804   1.414       .  A
C4799      C4808   1.396       .  A
C4800      F4816   1.382       .  S
C4800      F4817   1.383       .  S
C4800      F4818   1.384       .  S
C4802      F4813   1.385       .  S
C4802      F4814   1.377       .  S
C4802      F4815   1.380       .  S
C4804      C4805   1.408       .  A
C4804      C4809   1.515       .  S
C4805      C4806   1.407       .  A
C4805      H4810   1.085       .  S
C4806      C4807   1.417       .  A
C4807      C4808   1.401       .  A
C4807      C4811   1.498       .  S
C4808      H4812   1.084       .  S
C4809      F4822   1.384       .  S
C4809      F4823   1.382       .  S
C4809      F4824   1.383       .  S
C4811      F4819   1.375       .  S
C4811      F4820   1.378       .  S
C4811      F4821   1.385       .  S
C4825      C4826   1.401       .  A
C4825      C4830   1.407       .  A
C4825      H4835   1.083       .  S
C4826      C4827   1.409       .  A
C4826      C4831   1.476       .  S
C4827      C4828   1.403       .  A
C4827      C4832   1.516       .  S
C4828      C4829   1.404       .  A
C4828      H4833   1.079       .  S
C4829      C4830   1.420       .  A
C4830      C4834   1.515       .  S
C4831      C4836   1.412       .  A
C4831      C4840   1.396       .  A
C4832      F4848   1.383       .  S
C4832      F4849   1.381       .  S
C4832      F4850   1.382       .  S
C4834      F4845   1.385       .  S
C4834      F4846   1.373       .  S
C4834      F4847   1.382       .  S
C4836      C4837   1.408       .  A
C4836      C4841   1.517       .  S
C4837      C4838   1.415       .  A
C4837      H4842   1.084       .  S
C4838      C4839   1.429       .  A
C4839      C4840   1.400       .  A
C4839      C4843   1.520       .  S
C4840      H4844   1.084       .  S
C4841      F4854   1.384   1_565  S
C4841      F4855   1.382       .  S
C4841      F4856   1.383       .  S
C4843      F4851   1.381       .  S
C4843      F4852   1.380       .  S
C4843      F4853   1.386       .  S
C4857      C4858   1.397       .  A
C4857      C4862   1.402       .  A
C4857      H4867   1.082       .  S
C4858      C4859   1.419       .  A
C4858      C4863   1.478       .  S
C4859      C4860   1.401       .  A
C4859      C4864   1.516       .  S
C4860      C4861   1.399       .  A
C4860      H4865   1.084       .  S
C4861      C4862   1.419       .  A
C4862      C4866   1.513       .  S
C4863      C4868   1.411       .  A
C4863      C4872   1.392       .  A
C4864      F4880   1.383       .  S
C4864      F4881   1.383       .  S
C4864      F4882   1.384       .  S
C4866      F4877   1.385       .  S
C4866      F4878   1.381       .  S
C4866      F4879   1.379       .  S
C4868      C4869   1.410       .  A
C4868      C4873   1.518   1_655  S
C4869      C4870   1.412       .  A
C4869      H4874   1.083   1_655  S
C4870      C4871   1.432       .  A
C4871      C4872   1.395       .  A
C4871      C4875   1.519       .  S
C4872      H4876   1.086       .  S
C4873      F4886   1.384       .  S
C4873      F4887   1.381       .  S
C4873      F4888   1.383       .  S
C4875      F4883   1.384       .  S
C4875      F4884   1.361       .  S
C4875      F4885   1.384       .  S
C4889      C4890   1.404       .  A
C4889      C4894   1.414       .  A
C4889      H4899   1.082       .  S
C4890      C4891   1.418       .  A
C4890      C4895   1.506       .  S
C4891      C4892   1.412       .  A
C4891      C4896   1.511       .  S
C4892      C4893   1.401       .  A
C4892      H4897   1.076       .  S
C4893      C4894   1.421       .  A
C4894      C4898   1.517       .  S
C4895      C4900   1.419       .  A
C4895      C4904   1.408       .  A
C4896      F4912   1.381       .  S
C4896      F4913   1.377       .  S
C4896      F4914   1.385       .  S
C4898      F4909   1.385       .  S
C4898      F4910   1.380       .  S
C4898      F4911   1.383       .  S
C4900      C4901   1.411       .  A
C4900      C4905   1.521       .  S
C4901      C4902   1.408       .  A
C4901      H4906   1.080       .  S
C4902      C4903   1.422       .  A
C4903      C4904   1.415       .  A
C4903      C4907   1.516       .  S
C4904      H4908   1.084       .  S
C4905      F4918   1.384       .  S
C4905      F4919   1.381       .  S
C4905      F4920   1.382       .  S
C4907      F4915   1.383       .  S
C4907      F4916   1.380       .  S
C4907      F4917   1.384       .  S
C4921      C4922   1.409       .  A
C4921      C4926   1.418       .  A
C4921      H4931   1.081       .  S
C4922      C4923   1.416       .  A
C4922      C4927   1.500       .  S
C4923      C4924   1.403       .  A
C4923      C4928   1.523       .  S
C4924      C4925   1.408       .  A
C4924      H4929   1.081       .  S
C4925      C4926   1.423       .  A
C4926      C4930   1.518       .  S
C4927      C4932   1.416       .  A
C4927      C4936   1.403       .  A
C4928      F4944   1.381       .  S
C4928      F4945   1.384       .  S
C4928      F4946   1.385       .  S
C4930      F4941   1.383       .  S
C4930      F4942   1.385       .  S
C4930      F4943   1.384       .  S
C4932      C4933   1.409       .  A
C4932      C4937   1.520       .  S
C4933      C4934   1.412       .  A
C4933      H4938   1.082       .  S
C4934      C4935   1.427       .  A
C4935      C4936   1.409       .  A
C4935      C4939   1.514       .  S
C4936      H4940   1.083       .  S
C4937      F4950   1.385       .  S
C4937      F4951   1.381       .  S
C4937      F4952   1.384       .  S
C4939      F4947   1.380       .  S
C4939      F4948   1.373       .  S
C4939      F4949   1.383       .  S
C4953      C4954   1.410   1_565  A
C4953      C4958   1.409       .  A
C4953      H4963   1.082       .  S
C4954      C4955   1.431       .  A
C4954      C4959   1.520       .  S
C4955      C4956   1.418       .  A
C4955      C4960   1.518       .  S
C4956      C4957   1.406       .  A
C4956      H4961   1.085       .  S
C4957      C4958   1.416   1_545  A
C4958      C4962   1.514       .  S
C4959      C4964   1.426       .  A
C4959      C4968   1.409   1_545  A
C4960      F4976   1.384       .  S
C4960      F4977   1.381       .  S
C4960      F4978   1.383       .  S
C4962      F4973   1.376       .  S
C4962      F4974   1.385       .  S
C4962      F4975   1.378       .  S
C4964      C4965   1.416       .  A
C4964      C4969   1.519       .  S
C4965      C4966   1.407       .  A
C4965      H4970   1.077       .  S
C4966      C4967   1.426   1_545  A
C4967      C4968   1.410       .  A
C4967      C4971   1.522       .  S
C4968      H4972   1.084       .  S
C4969      F4982   1.383       .  S
C4969      F4983   1.381       .  S
C4969      F4984   1.379       .  S
C4971      F4979   1.383       .  S
C4971      F4980   1.376   1_655  S
C4971      F4981   1.384   1_655  S
C4985      C4986   1.398       .  A
C4985      C4990   1.409       .  A
C4985      H4995   1.083       .  S
C4986      C4987   1.412       .  A
C4986      C4991   1.476       .  S
C4987      C4988   1.398       .  A
C4987      C4992   1.520       .  S
C4988      C4989   1.407       .  A
C4988      H4993   1.082       .  S
C4989      C4990   1.430       .  A
C4990      C4994   1.522       .  S
C4991      C4996   1.413       .  A
C4991      C5000   1.403       .  A
C4992      F5008   1.382       .  S
C4992      F5009   1.382       .  S
C4992      F5010   1.385       .  S
C4994      F5005   1.385       .  S
C4994      F5006   1.384       .  S
C4994      F5007   1.383       .  S
C4996      C4997   1.395       .  A
C4996      C5001   1.513       .  S
C4997      C4998   1.400       .  A
C4997      H5002   1.086       .  S
C4998      C4999   1.418       .  A
C4999      C5000   1.409       .  A
C4999      C5003   1.515       .  S
C5000      H5004   1.083       .  S
C5001      F5014   1.384   1_556  S
C5001      F5015   1.381       .  S
C5001      F5016   1.381       .  S
C5003      F5011   1.382       .  S
C5003      F5012   1.378       .  S
C5003      F5013   1.385       .  S
C5017      C5018   1.400       .  A
C5017      C5022   1.408       .  A
C5017      H5027   1.083       .  S
C5018      C5019   1.414       .  A
C5018      C5023   1.479       .  S
C5019      C5020   1.402       .  A
C5019      C5024   1.519       .  S
C5020      C5021   1.404       .  A
C5020      H5025   1.083       .  S
C5021      C5022   1.421       .  A
C5022      C5026   1.519   1_455  S
C5023      C5028   1.413       .  A
C5023      C5032   1.399       .  A
C5024      F5040   1.381       .  S
C5024      F5041   1.382       .  S
C5024      F5042   1.385       .  S
C5026      F5037   1.385       .  S
C5026      F5038   1.383       .  S
C5026      F5039   1.382       .  S
C5028      C5029   1.404       .  A
C5028      C5033   1.519       .  S
C5029      C5030   1.401       .  A
C5029      H5034   1.078       .  S
C5030      C5031   1.421       .  A
C5031      C5032   1.404       .  A
C5031      C5035   1.518       .  S
C5032      H5036   1.085       .  S
C5033      F5046   1.384       .  S
C5033      F5047   1.383       .  S
C5033      F5048   1.382       .  S
C5035      F5043   1.384       .  S
C5035      F5044   1.378       .  S
C5035      F5045   1.381       .  S
C5049      C5050   1.403       .  A
C5049      C5054   1.407       .  A
C5049      H5059   1.085       .  S
C5050      C5051   1.412       .  A
C5050      C5055   1.477       .  S
C5051      C5052   1.400       .  A
C5051      C5056   1.520       .  S
C5052      C5053   1.404       .  A
C5052      H5057   1.083   1_655  S
C5053      C5054   1.419       .  A
C5054      C5058   1.516       .  S
C5055      C5060   1.413       .  A
C5055      C5064   1.395       .  A
C5056      F5072   1.383       .  S
C5056      F5073   1.382   1_655  S
C5056      F5074   1.385   1_655  S
C5058      F5069   1.383       .  S
C5058      F5070   1.383       .  S
C5058      F5071   1.378       .  S
C5060      C5061   1.407       .  A
C5060      C5065   1.517       .  S
C5061      C5062   1.411       .  A
C5061      H5066   1.084       .  S
C5062      C5063   1.433       .  A
C5063      C5064   1.401       .  A
C5063      C5067   1.527       .  S
C5064      H5068   1.084       .  S
C5065      F5078   1.383       .  S
C5065      F5079   1.383       .  S
C5065      F5080   1.382       .  S
C5067      F5075   1.383       .  S
C5067      F5076   1.385       .  S
C5067      F5077   1.384       .  S
C5081      C5082   1.394       .  A
C5081      C5086   1.397       .  A
C5081      H5091   1.084       .  S
C5082      C5083   1.408       .  A
C5082      C5087   1.471       .  S
C5083      C5084   1.406       .  A
C5083      C5088   1.516   1_556  S
C5084      C5085   1.411       .  A
C5084      H5089   1.082   1_556  S
C5085      C5086   1.433       .  A
C5086      C5090   1.527       .  S
C5087      C5092   1.417       .  A
C5087      C5096   1.396       .  A
C5088      F5104   1.382   1_554  S
C5088      F5105   1.383       .  S
C5088      F5106   1.384       .  S
C5090      F5101   1.385       .  S
C5090      F5102   1.380       .  S
C5090      F5103   1.383       .  S
C5092      C5093   1.404       .  A
C5092      C5097   1.517       .  S
C5093      C5094   1.400       .  A
C5093      H5098   1.084       .  S
C5094      C5095   1.416       .  A
C5095      C5096   1.398       .  A
C5095      C5099   1.511       .  S
C5096      H5100   1.084       .  S
C5097      F5110   1.383   1_556  S
C5097      F5111   1.382       .  S
C5097      F5112   1.383   1_556  S
C5099      F5107   1.380       .  S
C5099      F5108   1.382       .  S
C5099      F5109   1.385       .  S
C5113      C5114   1.409       .  A
C5113      C5118   1.417       .  A
C5113      H5123   1.083       .  S
C5114      C5115   1.423       .  A
C5114      C5119   1.508       .  S
C5115      C5116   1.410       .  A
C5115      C5120   1.520       .  S
C5116      C5117   1.408       .  A
C5116      H5121   1.085       .  S
C5117      C5118   1.425       .  A
C5118      C5122   1.520       .  S
C5119      C5124   1.423       .  A
C5119      C5128   1.404       .  A
C5120      F5136   1.380       .  S
C5120      F5137   1.383       .  S
C5120      F5138   1.384       .  S
C5122      F5133   1.378       .  S
C5122      F5134   1.384       .  S
C5122      F5135   1.383       .  S
C5124      C5125   1.414       .  A
C5124      C5129   1.518       .  S
C5125      C5126   1.409       .  A
C5125      H5130   1.081       .  S
C5126      C5127   1.426       .  A
C5127      C5128   1.410       .  A
C5127      C5131   1.518       .  S
C5128      H5132   1.085       .  S
C5129      F5142   1.382       .  S
C5129      F5143   1.383       .  S
C5129      F5144   1.382       .  S
C5131      F5139   1.384       .  S
C5131      F5140   1.379       .  S
C5131      F5141   1.383       .  S
C5145      C5146   1.403   1_655  A
C5145      C5150   1.411       .  A
C5145      H5155   1.083       .  S
C5146      C5147   1.418       .  A
C5146      C5151   1.499       .  S
C5147      C5148   1.416       .  A
C5147      C5152   1.514       .  S
C5148      C5149   1.402       .  A
C5148      H5153   1.082       .  S
C5149      C5150   1.424   1_455  A
C5150      C5154   1.518       .  S
C5151      C5156   1.421       .  A
C5151      C5160   1.399       .  A
C5152      F5168   1.382       .  S
C5152      F5169   1.378       .  S
C5152      F5170   1.382       .  S
C5154      F5165   1.377       .  S
C5154      F5166   1.385       .  S
C5154      F5167   1.382       .  S
C5156      C5157   1.419       .  A
C5156      C5161   1.519       .  S
C5157      C5158   1.409       .  A
C5157      H5162   1.083       .  S
C5158      C5159   1.428       .  A
C5159      C5160   1.403       .  A
C5159      C5163   1.518   1_456  S
C5160      H5164   1.085   1_455  S
C5161      F5174   1.385       .  S
C5161      F5175   1.383       .  S
C5161      F5176   1.378       .  S
C5163      F5171   1.385   1_554  S
C5163      F5172   1.372       .  S
C5163      F5173   1.383       .  S
C5177      C5178   1.400       .  A
C5177      C5182   1.412       .  A
C5177      H5187   1.083       .  S
C5178      C5179   1.419       .  A
C5178      C5183   1.498       .  S
C5179      C5180   1.411       .  A
C5179      C5184   1.518       .  S
C5180      C5181   1.405       .  A
C5180      H5185   1.083       .  S
C5181      C5182   1.427       .  A
C5182      C5186   1.520       .  S
C5183      C5188   1.417       .  A
C5183      C5192   1.400       .  A
C5184      F5200   1.381       .  S
C5184      F5201   1.382       .  S
C5184      F5202   1.385       .  S
C5186      F5197   1.378       .  S
C5186      F5198   1.385       .  S
C5186      F5199   1.374       .  S
C5188      C5189   1.412       .  A
C5188      C5193   1.520       .  S
C5189      C5190   1.410       .  A
C5189      H5194   1.079       .  S
C5190      C5191   1.428       .  A
C5191      C5192   1.409       .  A
C5191      C5195   1.520       .  S
C5192      H5196   1.085       .  S
C5193      F5206   1.385       .  S
C5193      F5207   1.381       .  S
C5193      F5208   1.383       .  S
C5195      F5203   1.383       .  S
C5195      F5204   1.379       .  S
C5195      F5205   1.384       .  S
C5209      C5210   1.395   1_554  A
C5209      C5214   1.404       .  A
C5209      H5219   1.083       .  S
C5210      C5211   1.414       .  A
C5210      C5215   1.480       .  S
C5211      C5212   1.407       .  A
C5211      C5216   1.520       .  S
C5212      C5213   1.410   1_556  A
C5212      H5217   1.082       .  S
C5213      C5214   1.434       .  A
C5214      C5218   1.528       .  S
C5215      C5220   1.417       .  A
C5215      C5224   1.402   1_556  A
C5216      F5232   1.381       .  S
C5216      F5233   1.381       .  S
C5216      F5234   1.384       .  S
C5218      F5229   1.385       .  S
C5218      F5230   1.381       .  S
C5218      F5231   1.379       .  S
C5220      C5221   1.409       .  A
C5220      C5225   1.521       .  S
C5221      C5222   1.415       .  A
C5221      H5226   1.073       .  S
C5222      C5223   1.411   1_556  A
C5223      C5224   1.401       .  A
C5223      C5227   1.512   1_544  S
C5224      H5228   1.083       .  S
C5225      F5238   1.384       .  S
C5225      F5239   1.380       .  S
C5225      F5240   1.381       .  S
C5227      F5235   1.379   1_556  S
C5227      F5236   1.379       .  S
C5227      F5237   1.385       .  S
C5241      C5242   1.391       .  A
C5241      C5246   1.399       .  A
C5241      H5251   1.085       .  S
C5242      C5243   1.412       .  A
C5242      C5247   1.475       .  S
C5243      C5244   1.402       .  A
C5243      C5248   1.523   1_545  S
C5244      C5245   1.413       .  A
C5244      H5249   1.073       .  S
C5245      C5246   1.430       .  A
C5246      C5250   1.512   1_455  S
C5247      C5252   1.417   1_545  A
C5247      C5256   1.395       .  A
C5248      F5264   1.381   1_565  S
C5248      F5265   1.383       .  S
C5248      F5266   1.385       .  S
C5250      F5261   1.385   1_545  S
C5250      F5262   1.381       .  S
C5250      F5263   1.368   1_545  S
C5252      C5253   1.403       .  A
C5252      C5257   1.521       .  S
C5253      C5254   1.405   1_565  A
C5253      H5258   1.083       .  S
C5254      C5255   1.426       .  A
C5255      C5256   1.399       .  A
C5255      C5259   1.525       .  S
C5256      H5260   1.083       .  S
C5257      F5270   1.385       .  S
C5257      F5271   1.380       .  S
C5257      F5272   1.382       .  S
C5259      F5267   1.385       .  S
C5259      F5268   1.377       .  S
C5259      F5269   1.383       .  S
C5273      C5274   1.397   1_655  A
C5273      C5278   1.401       .  A
C5273      H5283   1.079       .  S
C5274      C5275   1.416       .  A
C5274      C5279   1.489       .  S
C5275      C5276   1.417       .  A
C5275      C5280   1.519       .  S
C5276      C5277   1.406       .  A
C5276      H5281   1.079       .  S
C5277      C5278   1.419   1_455  A
C5278      C5282   1.512       .  S
C5279      C5284   1.414       .  A
C5279      C5288   1.409       .  A
C5280      F5296   1.382       .  S
C5280      F5297   1.380       .  S
C5280      F5298   1.384       .  S
C5282      F5293   1.385       .  S
C5282      F5294   1.377       .  S
C5282      F5295   1.382       .  S
C5284      C5285   1.404       .  A
C5284      C5289   1.524   1_455  S
C5285      C5286   1.406       .  A
C5285      H5290   1.080   1_454  S
C5286      C5287   1.418       .  A
C5287      C5288   1.415       .  A
C5287      C5291   1.515       .  S
C5288      H5292   1.084       .  S
C5289      F5302   1.385   1_554  S
C5289      F5303   1.383       .  S
C5289      F5304   1.380   1_655  S
C5291      F5299   1.383       .  S
C5291      F5300   1.381       .  S
C5291      F5301   1.383       .  S
C5305      C5306   1.410       .  A
C5305      C5310   1.411       .  A
C5305      H5315   1.084       .  S
C5306      C5307   1.424   1_556  A
C5306      C5311   1.508       .  S
C5307      C5308   1.409       .  A
C5307      C5312   1.519       .  S
C5308      C5309   1.406   1_554  A
C5308      H5313   1.085       .  S
C5309      C5310   1.422       .  A
C5310      C5314   1.516       .  S
C5311      C5316   1.424   1_556  A
C5311      C5320   1.407       .  A
C5312      F5328   1.380       .  S
C5312      F5329   1.383       .  S
C5312      F5330   1.384   1_565  S
C5314      F5325   1.383       .  S
C5314      F5326   1.383       .  S
C5314      F5327   1.380       .  S
C5316      C5317   1.413       .  A
C5316      C5321   1.520       .  S
C5317      C5318   1.409   1_554  A
C5317      H5322   1.085       .  S
C5318      C5319   1.422       .  A
C5319      C5320   1.410       .  A
C5319      C5323   1.515       .  S
C5320      H5324   1.085       .  S
C5321      F5334   1.383       .  S
C5321      F5335   1.384       .  S
C5321      F5336   1.381       .  S
C5323      F5331   1.383       .  S
C5323      F5332   1.376       .  S
C5323      F5333   1.381       .  S
C5337      C5338   1.402       .  A
C5337      C5342   1.416       .  A
C5337      H5347   1.082       .  S
C5338      C5339   1.420       .  A
C5338      C5343   1.504       .  S
C5339      C5340   1.414       .  A
C5339      C5344   1.522       .  S
C5340      C5341   1.411       .  A
C5340      H5345   1.083       .  S
C5341      C5342   1.428       .  A
C5342      C5346   1.519   1_565  S
C5343      C5348   1.416   1_565  A
C5343      C5352   1.394       .  A
C5344      F5360   1.381       .  S
C5344      F5361   1.383   1_565  S
C5344      F5362   1.385       .  S
C5346      F5357   1.383       .  S
C5346      F5358   1.385       .  S
C5346      F5359   1.381   1_545  S
C5348      C5349   1.416       .  A
C5348      C5353   1.518       .  S
C5349      C5350   1.416   1_545  A
C5349      H5354   1.082       .  S
C5350      C5351   1.438       .  A
C5351      C5352   1.409       .  A
C5351      C5355   1.510       .  S
C5352      H5356   1.086       .  S
C5353      F5366   1.385       .  S
C5353      F5367   1.381       .  S
C5353      F5368   1.382       .  S
C5355      F5363   1.376       .  S
C5355      F5364   1.362       .  S
C5355      F5365   1.385       .  S
C5369      C5370   1.406       .  A
C5369      C5374   1.417       .  A
C5369      H5379   1.081       .  S
C5370      C5371   1.421   1_655  A
C5370      C5375   1.509       .  S
C5371      C5372   1.415       .  A
C5371      C5376   1.518       .  S
C5372      C5373   1.410   1_455  A
C5372      H5377   1.084       .  S
C5373      C5374   1.425       .  A
C5374      C5378   1.517       .  S
C5375      C5380   1.417       .  A
C5375      C5384   1.403   1_655  A
C5376      F5392   1.382       .  S
C5376      F5393   1.382       .  S
C5376      F5394   1.384       .  S
C5378      F5389   1.385       .  S
C5378      F5390   1.381       .  S
C5378      F5391   1.382       .  S
C5380      C5381   1.421       .  A
C5380      C5385   1.517   1_556  S
C5381      C5382   1.422   1_655  A
C5381      H5386   1.080   1_556  S
C5382      C5383   1.428       .  A
C5383      C5384   1.414       .  A
C5383      C5387   1.513       .  S
C5384      H5388   1.085       .  S
C5385      F5398   1.385       .  S
C5385      F5399   1.379   1_554  S
C5385      F5400   1.382       .  S
C5387      F5395   1.381       .  S
C5387      F5396   1.380       .  S
C5387      F5397   1.386       .  S
