geometry optimzed in LAMMPS
_audit_creation_date              2020-11-30 
_audit_creation_method            'lammps2cif' 
_symmetry_space_group_name_H-M    'P1' 
_symmetry_Int_Tables_number       1 
_symmetry_cell_setting            triclinic 
loop_ 
_symmetry_equiv_pos_as_xyz 
  x,y,z 
_cell_length_a                    45.62560627 
_cell_length_b                    37.00676014602563 
_cell_length_c                    57.43835286056507 
_cell_angle_alpha                 90.10258514050695 
_cell_angle_beta                  123.62865204287459 
_cell_angle_gamma                 89.85096950432956 
loop_ 
_atom_site_label 
_atom_site_type_symbol 
_atom_site_fract_x 
_atom_site_fract_y 
_atom_site_fract_z 
_atom_site_charge 
O1          O  0.48186841  0.05722195  0.48249363    -0.72600
O2          O  0.05436394  0.47822639  0.01350436    -0.73600
O3          O  0.99886684  0.00001045  0.45961495    -0.62200
O4          O  0.03792415  0.03579195  0.03738748    -0.70600
O5          O  0.50113879  0.49998690  0.04038978    -0.70200
O6          O  0.46208136  0.46420508  0.46261690    -0.61400
O7          O  0.01813738  0.44277512  0.01751127    -0.73900
O8          O  0.44564171  0.02177079  0.48650047    -0.72700
Cu9        Cu  0.01956711  0.01910314  0.49819037     1.04600
Cu10       Cu  0.48043825  0.48089392  0.00181432     1.04500
C11         C  0.45231685  0.05179831  0.47947978     0.93600
C12         C  0.04768825  0.44819811  0.02052559     0.92700
C13         C  0.47423728  0.47661934  0.44883608     0.84900
C14         C  0.02576812  0.02337762  0.05116843     0.91100
N15         N  0.38223350  0.11694232  0.45844913    -0.27000
N16         N  0.38724058  0.12062837  0.43797382    -0.34800
C17         C  0.41372370  0.09885672  0.44288584     0.01400
C18         C  0.42543020  0.08012020  0.46728312     0.07400
C19         C  0.40483845  0.09194453  0.47655004    -0.05700
H20         H  0.42277205  0.09581879  0.42910227     0.08100
H21         H  0.40635345  0.08326961  0.99517091     0.09300
Cu22       Cu  0.35605979  0.15214978  0.40280966     0.44200
Cu23       Cu  0.34601683  0.14703162  0.46162938     0.42000
Cu24       Cu  0.28964037  0.20476408  0.40280438     0.43900
N25         N  0.31936948  0.18343436  0.36927874    -0.34300
N26         N  0.29518625  0.20285649  0.36951426    -0.28600
C27         C  0.27567436  0.22051325  0.34512236    -0.04700
C28         C  0.28804551  0.21159637  0.32868868     0.07500
C29         C  0.31572519  0.18799088  0.34456327     0.01300
H30         H  0.25407479  0.23849114  0.33977530     0.09000
H31         H  0.33216264  0.17530806  0.33872196     0.08000
N32         N  0.28977536  0.20435621  0.43879951    -0.35800
N33         N  0.31034236  0.18331293  0.46050049    -0.28000
C34         C  0.30455874  0.19041337  0.48063177    -0.03200
C35         C  0.27910448  0.21728161  0.47109703     0.05400
C36         C  0.27038038  0.22531652  0.44444423     0.03500
H37         H  0.31846155  0.17751003  0.00090949     0.08600
H38         H  0.25113052  0.24478109  0.43000096     0.07400
N39         N  0.11777313  0.38305640  0.04155643    -0.27000
N40         N  0.11276664  0.37936877  0.06203195    -0.34800
C41         C  0.08628241  0.40114001  0.05711985     0.01400
C42         C  0.07457621  0.41987722  0.03272151     0.07400
C43         C  0.09516822  0.40805336  0.02345593    -0.05700
H44         H  0.07723676  0.40417580  0.07089919     0.08100
H45         H  0.09365250  0.41673267  0.50482601     0.09300
Cu46       Cu  0.14394760  0.34784690  0.09719622     0.44200
Cu47       Cu  0.15399073  0.35296779  0.03837686     0.42000
Cu48       Cu  0.21036413  0.29523042  0.09719918     0.43900
N49         N  0.18063899  0.31656015  0.13072660    -0.34300
N50         N  0.20481997  0.29713767  0.13049056    -0.28600
C51         C  0.22433275  0.27948031  0.15488246    -0.04700
C52         C  0.21196383  0.28839781  0.17131668     0.07500
C53         C  0.18428418  0.31200437  0.15544317     0.01300
H54         H  0.24593363  0.26150001  0.16022949     0.09000
H55         H  0.16785197  0.32468499  0.16128392     0.08000
N56         N  0.21022916  0.29564343  0.06120329    -0.35800
N57         N  0.18966571  0.31668602  0.03950638    -0.28000
C58         C  0.19544841  0.30958867  0.01937279    -0.03200
C59         C  0.22090166  0.28271988  0.02890729     0.05400
C60         C  0.22962536  0.27468235  0.05555867     0.03500
H61         H  0.18154508  0.32249500  0.49909840     0.08600
H62         H  0.24887193  0.25521888  0.06999989     0.07400
O63         O  0.19441181  0.23113885  0.23603417    -0.72600
O64         O  0.27097418  0.30602079  0.26879936    -0.73600
O65         O  0.21370495  0.28776621  0.21348372    -0.62200
O66         O  0.25105997  0.24974438  0.29031219    -0.70600
O67         O  0.28630448  0.21222922  0.28652174    -0.70200
O68         O  0.24894927  0.25025072  0.20969323    -0.61400
O69         O  0.30559748  0.26885644  0.26397111    -0.73900
O70         O  0.22903558  0.19397467  0.23120632    -0.72700
Cu71       Cu  0.23131313  0.27004377  0.25226013     1.04600
Cu72       Cu  0.26869616  0.22995175  0.24774530     1.04300
C73         C  0.19973512  0.20079690  0.22834765     0.93600
C74         C  0.30027422  0.29919897  0.27165828     0.92700
C75         C  0.22544405  0.27491685  0.19948693     0.84900
C76         C  0.27456471  0.22507880  0.30051854     0.91100
N77         N  0.12843888  0.13686667  0.20663342    -0.27000
N78         N  0.13479641  0.13176450  0.18699489    -0.34800
C79         C  0.16129435  0.15343085  0.19200059     0.01400
C80         C  0.17169765  0.17363417  0.21555756     0.07400
C81         C  0.15025359  0.16272181  0.22426244    -0.05700
H82         H  0.17171496  0.15488848  0.17908053     0.08100
H83         H  0.15113277  0.17209276  0.24250163     0.09300
Cu84       Cu  0.10640140  0.09738613  0.15315273     0.44200
Cu85       Cu  0.09259151  0.10616850  0.21000641     0.42000
Cu86       Cu  0.04379243  0.04098141  0.15485935     0.43900
N87         N  0.07151103  0.06406025  0.12036945    -0.34300
N88         N  0.04853780  0.04335333  0.12117489    -0.28600
C89         C  0.02899771  0.02567554  0.09678204    -0.04700
C90         C  0.04013530  0.03585602  0.07976716     0.07500
C91         C  0.06714684  0.06020056  0.09532727     0.01300
H92         H  0.00799621  0.00708391  0.09173344     0.09000
H93         H  0.08228231  0.07428422  0.08888335     0.08000
N94         N  0.04204188  0.04352628  0.18998608    -0.35800
N95         N  0.05929463  0.06764036  0.21013327    -0.28000
C96         C  0.05235200  0.06173285  0.22976748    -0.03200
C97         C  0.02976168  0.03236661  0.22156190     0.05400
C98         C  0.02384714  0.02166481  0.19620516     0.03500
H99         H  0.06350781  0.07719834  0.24884314     0.08600
H100        H  0.00715940  0.99982404  0.18296418     0.07400
N101        N  0.37157190  0.36312689  0.29337279    -0.27000
N102        N  0.36521649  0.36822864  0.31301174    -0.34800
C103        C  0.33871767  0.34656257  0.30800664     0.01400
C104        C  0.32831322  0.32636060  0.28444810     0.07400
C105        C  0.34975622  0.33727301  0.27574318    -0.05700
H106        H  0.32830172  0.34510581  0.32092400     0.08100
H107        H  0.34887624  0.32790205  0.25750101     0.09300
Cu108      Cu  0.39361072  0.40260608  0.34685399     0.44200
Cu109      Cu  0.40741813  0.39382648  0.28999924     0.42000
Cu110      Cu  0.45621407  0.45901758  0.34514452     0.43900
N111        N  0.42849839  0.43593535  0.37963573    -0.34300
N112        N  0.45146822  0.45664353  0.37882941    -0.28600
C113        C  0.47100763  0.47432352  0.40322218    -0.04700
C114        C  0.45987093  0.46414127  0.42023705     0.07500
C115        C  0.43286179  0.43979442  0.40467822     0.01300
H116        H  0.49200499  0.49291492  0.40826904     0.09000
H117        H  0.41772916  0.42571006  0.41112177     0.08000
N118        N  0.45796308  0.45647365  0.31001701    -0.35800
N119        N  0.44071076  0.43235728  0.28987035    -0.28000
C120        C  0.44765095  0.43826516  0.27023518    -0.03200
C121        C  0.47023867  0.46763315  0.27843809     0.05400
C122        C  0.47615455  0.47833599  0.30379546     0.03500
H123        H  0.43649427  0.42279674  0.25115842     0.08600
H124        H  0.49284195  0.50017845  0.31703541     0.07400
C125        C  0.49476321  0.46258948  0.24872838     0.23900
C126        C  0.48511516  0.48420157  0.26361698    -0.24200
C127        C  0.49046731  0.02181144  0.26469628     0.18800
C128        C  0.00523392  0.03741039  0.25126924     0.23900
C129        C  0.01488271  0.01579844  0.23638116    -0.24100
C130        C  0.00952961  0.47818855  0.23530110     0.18800
F131        F  0.01966508  0.45622905  0.22201976    -0.14100
F132        F  0.49108571  0.42613479  0.24795206    -0.16400
F133        F  0.00891155  0.07386513  0.25204564    -0.16400
F134        F  0.48033097  0.04377078  0.27797688    -0.14100
C135        C  0.24595574  0.22936121  0.01841314     0.23900
C136        C  0.23558062  0.26593126  0.01396902    -0.24200
C137        C  0.23976422  0.28635903  0.99537178     0.18800
C138        C  0.25404827  0.27064047  0.48158903     0.23900
C139        C  0.26442400  0.23407100  0.48603352    -0.24100
C140        C  0.26023978  0.21364278  0.50463045     0.18800
F141        F  0.26881993  0.17802572  0.50881434    -0.14100
F142        F  0.24123213  0.20830549  0.03540212    -0.16400
F143        F  0.25877145  0.29169604  0.46459961    -0.16400
F144        F  0.23118333  0.32197596  0.99118730    -0.14100
O145        O  0.48186811  0.05722223  0.98249348    -0.72600
O146        O  0.05436397  0.47822630  0.51350438    -0.73600
O147        O  0.99886702  0.00001063  0.95961515    -0.62200
O148        O  0.03792420  0.03579202  0.53738748    -0.70600
O149        O  0.50113905  0.49998710  0.54038990    -0.70200
O150        O  0.46208141  0.46420504  0.96261691    -0.61400
O151        O  0.01813761  0.44277481  0.51751136    -0.73900
O152        O  0.44564175  0.02177088  0.98650050    -0.72700
Cu153      Cu  0.01956709  0.01910312  0.99819043     1.04600
Cu154      Cu  0.48043826  0.48089399  0.50181437     1.04500
C155        C  0.45231737  0.05179926  0.97947962     0.93600
C156        C  0.04768789  0.44819741  0.52052564     0.92700
C157        C  0.47423729  0.47661934  0.94883608     0.84900
C158        C  0.02576821  0.02337774  0.55116851     0.91100
N159        N  0.38223299  0.11694280  0.95844850    -0.27000
N160        N  0.38723963  0.12062889  0.93797397    -0.34800
C161        C  0.41372347  0.09885689  0.94288568     0.01400
C162        C  0.42542938  0.08012073  0.96728354     0.07400
C163        C  0.40483795  0.09194493  0.97654978    -0.05700
H164        H  0.42276933  0.09582043  0.92910566     0.08100
H165        H  0.40635476  0.08326965  0.49516986     0.09300
Cu166      Cu  0.35605965  0.15214986  0.90280957     0.44200
Cu167      Cu  0.34601629  0.14703195  0.96162952     0.42000
Cu168      Cu  0.28964050  0.20476401  0.90280442     0.43900
N169        N  0.31936919  0.18343464  0.86927871    -0.34300
N170        N  0.29518639  0.20285647  0.86951434    -0.28600
C171        C  0.27567416  0.22051348  0.84512232    -0.04700
C172        C  0.28804550  0.21159644  0.82868874     0.07500
C173        C  0.31572497  0.18799105  0.84456318     0.01300
H174        H  0.25407550  0.23849028  0.83977564     0.09000
H175        H  0.33216241  0.17530809  0.83872190     0.08000
N176        N  0.28977560  0.20435597  0.93879998    -0.35800
N177        N  0.31034165  0.18331356  0.96050040    -0.28000
C178        C  0.30455771  0.19041434  0.98063195    -0.03200
C179        C  0.27910339  0.21728251  0.97109616     0.05400
C180        C  0.27038002  0.22531696  0.94444397     0.03500
H181        H  0.31846510  0.17750613  0.50091217     0.08600
H182        H  0.25112996  0.24478191  0.92999995     0.07400
N183        N  0.11777321  0.38305654  0.54155550    -0.27000
N184        N  0.11276677  0.37936854  0.56203235    -0.34800
C185        C  0.08628287  0.40113960  0.55711991     0.01400
C186        C  0.07457628  0.41987721  0.53272066     0.07400
C187        C  0.09516885  0.40805262  0.52345587    -0.05700
H188        H  0.07723738  0.40417555  0.57089866     0.08100
H189        H  0.09365175  0.41673110  0.00483062     0.09300
Cu190      Cu  0.14394738  0.34784717  0.59719602     0.44200
Cu191      Cu  0.15399062  0.35296789  0.53837672     0.42000
Cu192      Cu  0.21036404  0.29523047  0.59719925     0.43900
N193        N  0.18063876  0.31656035  0.63072654    -0.34300
N194        N  0.20481927  0.29713827  0.63049023    -0.28600
C195        C  0.22433252  0.27948054  0.65488215    -0.04700
C196        C  0.21196373  0.28839795  0.67131652     0.07500
C197        C  0.18428416  0.31200441  0.65544330     0.01300
H198        H  0.24593207  0.26150134  0.66022824     0.09000
H199        H  0.16785209  0.32468493  0.66128422     0.08000
N200        N  0.21022962  0.29564292  0.56120405    -0.35800
N201        N  0.18966497  0.31668680  0.53950575    -0.28000
C202        C  0.19544820  0.30958894  0.51937312    -0.03200
C203        C  0.22090160  0.28271996  0.52890734     0.05400
C204        C  0.22962500  0.27468260  0.55555898     0.03500
H205        H  0.18154652  0.32249379  0.99910039     0.08600
H206        H  0.24887291  0.25521743  0.57000103     0.07400
O207        O  0.19441190  0.23113889  0.73603414    -0.72600
O208        O  0.27097451  0.30602077  0.76879935    -0.73600
O209        O  0.21370502  0.28776627  0.71348377    -0.62200
O210        O  0.25106005  0.24974444  0.79031219    -0.70600
O211        O  0.28630455  0.21222920  0.78652180    -0.70200
O212        O  0.24894930  0.25025074  0.70969330    -0.61400
O213        O  0.30559759  0.26885621  0.76397099    -0.73900
O214        O  0.22903570  0.19397466  0.73120636    -0.72700
Cu215      Cu  0.23131326  0.27004384  0.75226021     1.04600
Cu216      Cu  0.26869620  0.22995169  0.74774533     1.04300
C217        C  0.19973520  0.20079693  0.72834754     0.93600
C218        C  0.30027411  0.29919918  0.77165811     0.92700
C219        C  0.22544412  0.27491687  0.69948700     0.84900
C220        C  0.27456463  0.22507897  0.80051856     0.91100
N221        N  0.12843902  0.13686692  0.70663359    -0.27000
N222        N  0.13479649  0.13176449  0.68699476    -0.34800
C223        C  0.16129433  0.15343078  0.69200044     0.01400
C224        C  0.17169774  0.17363431  0.71555744     0.07400
C225        C  0.15025364  0.16272195  0.72426231    -0.05700
H226        H  0.17171505  0.15488833  0.67908028     0.08100
H227        H  0.15113286  0.17209347  0.74250199     0.09300
Cu228      Cu  0.10640144  0.09738620  0.65315286     0.44200
Cu229      Cu  0.09259165  0.10616876  0.71000651     0.42000
Cu230      Cu  0.04379235  0.04098136  0.65485930     0.43900
N231        N  0.07151126  0.06406049  0.62036969    -0.34300
N232        N  0.04853757  0.04335313  0.62117499    -0.28600
C233        C  0.02899782  0.02567565  0.59678219    -0.04700
C234        C  0.04013550  0.03585626  0.57976729     0.07500
C235        C  0.06714706  0.06020088  0.59532767     0.01300
H236        H  0.00799598  0.00708361  0.59173334     0.09000
H237        H  0.08228299  0.07428527  0.58888371     0.08000
N238        N  0.04204168  0.04352602  0.68998563    -0.35800
N239        N  0.05929475  0.06764058  0.71013331    -0.28000
C240        C  0.05235180  0.06173275  0.72976705    -0.03200
C241        C  0.02976163  0.03236668  0.72156176     0.05400
C242        C  0.02384705  0.02166471  0.69620473     0.03500
H243        H  0.06350793  0.07719968  0.74884416     0.08600
H244        H  0.00715958  0.99982449  0.68296395     0.07400
N245        N  0.37157186  0.36312693  0.79337302    -0.27000
N246        N  0.36521701  0.36822852  0.81301071    -0.34800
C247        C  0.33871729  0.34656214  0.80800597     0.01400
C248        C  0.32831370  0.32636059  0.78444736     0.07400
C249        C  0.34975609  0.33727265  0.77574267    -0.05700
H250        H  0.32830407  0.34510619  0.82092033     0.08100
H251        H  0.34887655  0.32790194  0.75750051     0.09300
Cu252      Cu  0.39361061  0.40260591  0.84685376     0.44200
Cu253      Cu  0.40741836  0.39382672  0.78999918     0.42000
Cu254      Cu  0.45621403  0.45901752  0.84514459     0.43900
N255        N  0.42849834  0.43593531  0.87963569    -0.34300
N256        N  0.45146819  0.45664351  0.87882942    -0.28600
C257        C  0.47100761  0.47432352  0.90322217    -0.04700
C258        C  0.45987092  0.46414126  0.92023705     0.07500
C259        C  0.43286176  0.43979441  0.90467821     0.01300
H260        H  0.49200497  0.49291491  0.90826903     0.09000
H261        H  0.41772915  0.42571006  0.91112178     0.08000
N262        N  0.45796339  0.45647395  0.81001749    -0.35800
N263        N  0.44071057  0.43235699  0.78987012    -0.28000
C264        C  0.44765106  0.43826535  0.77023538    -0.03200
C265        C  0.47023926  0.46763376  0.77843876     0.05400
C266        C  0.47615448  0.47833592  0.80379603     0.03500
H267        H  0.43649478  0.42279770  0.75115883     0.08600
H268        H  0.49284345  0.50018179  0.81703772     0.07400
C269        C  0.49476325  0.46258962  0.74872855     0.23900
C270        C  0.48511534  0.48420150  0.76361724    -0.24200
C271        C  0.49046707  0.02181125  0.76469626     0.18800
C272        C  0.00523396  0.03741045  0.75126925     0.23900
C273        C  0.01488259  0.01579830  0.73638097    -0.24100
C274        C  0.00952950  0.47818866  0.73530115     0.18800
F275        F  0.01966487  0.45622920  0.72201975    -0.14100
F276        F  0.49108574  0.42613481  0.74795208    -0.16400
F277        F  0.00891160  0.07386515  0.75204568    -0.16400
F278        F  0.48033072  0.04377086  0.77797690    -0.14100
C279        C  0.24595578  0.22936129  0.51841321     0.23900
C280        C  0.23558059  0.26593130  0.51396910    -0.24200
C281        C  0.23976420  0.28635898  0.49537177     0.18800
C282        C  0.25404812  0.27064075  0.98158895     0.23900
C283        C  0.26442347  0.23407100  0.98603325    -0.24100
C284        C  0.26023953  0.21364289  0.00463025     0.18800
F285        F  0.26881965  0.17802566  0.00881419    -0.14100
F286        F  0.24123229  0.20830564  0.53540226    -0.16400
F287        F  0.25877144  0.29169619  0.96459964    -0.16400
F288        F  0.23118330  0.32197594  0.49118730    -0.14100
O289        O  0.48186820  0.55722234  0.48249340    -0.72600
O290        O  0.05436375  0.97822607  0.01350436    -0.73600
O291        O  0.99886736  0.50001084  0.45961512    -0.62200
O292        O  0.03792435  0.53579214  0.03738761    -0.70600
O293        O  0.50113917  0.99998712  0.04038994    -0.70200
O294        O  0.46208143  0.96420505  0.46261693    -0.61400
O295        O  0.01813728  0.94277472  0.01751132    -0.73900
O296        O  0.44564173  0.52177122  0.48650043    -0.72700
Cu297      Cu  0.01956729  0.51910330  0.49819049     1.04600
Cu298      Cu  0.48043841  0.98089389  0.00181440     1.04500
C299        C  0.45231726  0.55179945  0.47947923     0.93600
C300        C  0.04768769  0.94819735  0.02052582     0.92700
C301        C  0.47423740  0.97661930  0.44883613     0.84900
C302        C  0.02576834  0.52337791  0.05116850     0.91100
N303        N  0.38223282  0.61694278  0.45844898    -0.27000
N304        N  0.38723881  0.62062963  0.43797395    -0.34800
C305        C  0.41372247  0.59885796  0.44288509     0.01400
C306        C  0.42542911  0.58012111  0.46728303     0.07400
C307        C  0.40483800  0.59194490  0.47654972    -0.05700
H308        H  0.42276715  0.59582240  0.42910426     0.08100
H309        H  0.40635360  0.58326906  0.99517122     0.09300
Cu310      Cu  0.35605931  0.65215003  0.40280940     0.44200
Cu311      Cu  0.34601627  0.64703192  0.46162972     0.42000
Cu312      Cu  0.28964057  0.70476401  0.40280446     0.43900
N313        N  0.31936895  0.68343475  0.36927853    -0.34300
N314        N  0.29518662  0.70285629  0.36951419    -0.28600
C315        C  0.27567423  0.72051351  0.34512229    -0.04700
C316        C  0.28804472  0.71159698  0.32868863     0.07500
C317        C  0.31572464  0.68799132  0.34456262     0.01300
H318        H  0.25407426  0.73849183  0.33977554     0.09000
H319        H  0.33215961  0.67531088  0.33872186     0.08000
N320        N  0.28977555  0.70435609  0.43879977    -0.35800
N321        N  0.31034158  0.68331369  0.46050029    -0.28000
C322        C  0.30455749  0.69041452  0.48063164    -0.03200
C323        C  0.27910330  0.71728256  0.47109605     0.05400
C324        C  0.27037984  0.72531714  0.44444363     0.03500
H325        H  0.31846170  0.67750961  0.00090953     0.08600
H326        H  0.25113032  0.74478120  0.42999994     0.07400
N327        N  0.11777306  0.88305651  0.04155605    -0.27000
N328        N  0.11276685  0.87936852  0.06203234    -0.34800
C329        C  0.08628282  0.90113961  0.05712034     0.01400
C330        C  0.07457618  0.91987709  0.03272142     0.07400
C331        C  0.09516824  0.90805309  0.02345617    -0.05700
H332        H  0.07723765  0.90417528  0.07089938     0.08100
H333        H  0.09365249  0.91673277  0.50482600     0.09300
Cu334      Cu  0.14394765  0.84784702  0.09719624     0.44200
Cu335      Cu  0.15399074  0.85296786  0.03837680     0.42000
Cu336      Cu  0.21036410  0.79523050  0.09719916     0.43900
N337        N  0.18063965  0.81655971  0.13072652    -0.34300
N338        N  0.20481916  0.79713837  0.13049013    -0.28600
C339        C  0.22433311  0.77948010  0.15488217    -0.04700
C340        C  0.21196431  0.78839750  0.17131632     0.07500
C341        C  0.18428490  0.81200392  0.15544361     0.01300
H342        H  0.24593188  0.76150190  0.16022771     0.09000
H343        H  0.16785452  0.82468313  0.16128391     0.08000
N344        N  0.21022927  0.79564338  0.06120342    -0.35800
N345        N  0.18966581  0.81668606  0.03950656    -0.28000
C346        C  0.19544872  0.80958858  0.01937295    -0.03200
C347        C  0.22090212  0.78271950  0.02890790     0.05400
C348        C  0.22962538  0.77468230  0.05555897     0.03500
H349        H  0.18154603  0.82249440  0.49909945     0.08600
H350        H  0.24887303  0.75521746  0.07000123     0.07400
O351        O  0.19441138  0.73113918  0.23603420    -0.72600
O352        O  0.27097406  0.80602079  0.26879933    -0.73600
O353        O  0.21370503  0.78776619  0.21348351    -0.62200
O354        O  0.25105977  0.74974461  0.29031199    -0.70600
O355        O  0.28630435  0.71222921  0.28652179    -0.70200
O356        O  0.24894936  0.75025045  0.20969327    -0.61400
O357        O  0.30559746  0.76885643  0.26397120    -0.73900
O358        O  0.22903504  0.69397489  0.23120633    -0.72700
Cu359      Cu  0.23131303  0.77004390  0.25226003     1.04600
Cu360      Cu  0.26869600  0.72995167  0.24774530     1.04300
C361        C  0.19973451  0.70079712  0.22834776     0.93600
C362        C  0.30027433  0.79919871  0.27165836     0.92700
C363        C  0.22544429  0.77491661  0.19948682     0.84900
C364        C  0.27456487  0.72507853  0.30051843     0.91100
N365        N  0.12843855  0.63686657  0.20663347    -0.27000
N366        N  0.13479566  0.63176437  0.18699579    -0.34800
C367        C  0.16129419  0.65343092  0.19200118     0.01400
C368        C  0.17169686  0.67363415  0.21555808     0.07400
C369        C  0.15025327  0.66272195  0.22426296    -0.05700
H370        H  0.17171256  0.65488764  0.17908334     0.08100
H371        H  0.15113225  0.67209262  0.24250226     0.09300
Cu372      Cu  0.10640165  0.59738628  0.15315299     0.44200
Cu373      Cu  0.09259104  0.60616812  0.21000653     0.42000
Cu374      Cu  0.04379254  0.54098152  0.15485947     0.43900
N375        N  0.07151040  0.56405959  0.12036964    -0.34300
N376        N  0.04853909  0.54335438  0.12117526    -0.28600
C377        C  0.02899761  0.52567544  0.09678190    -0.04700
C378        C  0.04013545  0.53585615  0.07976758     0.07500
C379        C  0.06714659  0.56020033  0.09532685     0.01300
H380        H  0.00799986  0.50708770  0.09173493     0.09000
H381        H  0.08228033  0.57428243  0.08888377     0.08000
N382        N  0.04204123  0.54352545  0.18998570    -0.35800
N383        N  0.05929448  0.56764020  0.21013357    -0.28000
C384        C  0.05235148  0.56173227  0.22976728    -0.03200
C385        C  0.02976094  0.53236588  0.22156149     0.05400
C386        C  0.02384677  0.52166446  0.19620479     0.03500
H387        H  0.06350693  0.57719754  0.24884336     0.08600
H388        H  0.00715717  0.49982131  0.18296248     0.07400
N389        N  0.37157168  0.86312711  0.29337346    -0.27000
N390        N  0.36521651  0.86822844  0.31301122    -0.34800
C391        C  0.33871733  0.84656228  0.30800663     0.01400
C392        C  0.32831315  0.82636068  0.28444866     0.07400
C393        C  0.34975558  0.83727239  0.27574313    -0.05700
H394        H  0.32830172  0.84510602  0.32092403     0.08100
H395        H  0.34887578  0.82790286  0.25750446     0.09300
Cu396      Cu  0.39361076  0.90260616  0.34685402     0.44200
Cu397      Cu  0.40741821  0.89382668  0.28999929     0.42000
Cu398      Cu  0.45621411  0.95901767  0.34514460     0.43900
N399        N  0.42849842  0.93593544  0.37963574    -0.34300
N400        N  0.45146826  0.95664362  0.37882943    -0.28600
C401        C  0.47100767  0.97432361  0.40322219    -0.04700
C402        C  0.45987100  0.96414132  0.42023707     0.07500
C403        C  0.43286183  0.93979452  0.40467823     0.01300
H404        H  0.49200504  0.99291499  0.40826905     0.09000
H405        H  0.41772923  0.92571014  0.41112180     0.08000
N406        N  0.45796332  0.95647393  0.31001695    -0.35800
N407        N  0.44071102  0.93235757  0.28987034    -0.28000
C408        C  0.44765157  0.93826574  0.27023508    -0.03200
C409        C  0.47023976  0.96763427  0.27843903     0.05400
C410        C  0.47615477  0.97833621  0.30379575     0.03500
H411        H  0.43649695  0.92280090  0.25116131     0.08600
H412        H  0.49284442  0.00018223  0.31703789     0.07400
C413        C  0.49476332  0.96258971  0.24872849     0.23900
C414        C  0.48511555  0.98420124  0.26361716    -0.24200
C415        C  0.49046715  0.52181122  0.26469619     0.18800
C416        C  0.00523391  0.53741036  0.25126920     0.23900
C417        C  0.01488245  0.51579836  0.23638104    -0.24100
C418        C  0.00952957  0.97818868  0.23530114     0.18800
F419        F  0.01966504  0.95622914  0.22201979    -0.14100
F420        F  0.49108578  0.92613474  0.24795216    -0.16400
F421        F  0.00891154  0.57386521  0.25204563    -0.16400
F422        F  0.48033081  0.54377077  0.27797689    -0.14100
C423        C  0.24595578  0.72936112  0.01841321     0.23900
C424        C  0.23558066  0.76593152  0.01396915    -0.24200
C425        C  0.23976423  0.78635895  0.99537187     0.18800
C426        C  0.25404805  0.77064074  0.48158897     0.23900
C427        C  0.26442335  0.73407120  0.48603309    -0.24100
C428        C  0.26023951  0.71364295  0.50463026     0.18800
F429        F  0.26881965  0.67802581  0.50881418    -0.14100
F430        F  0.24123224  0.70830539  0.03540217    -0.16400
F431        F  0.25877132  0.79169609  0.46459957    -0.16400
F432        F  0.23118330  0.82197605  0.99118728    -0.14100
O433        O  0.48186821  0.55722225  0.98249349    -0.72600
O434        O  0.05436411  0.97822628  0.51350432    -0.73600
O435        O  0.99886728  0.50001089  0.95961505    -0.62200
O436        O  0.03792445  0.53579219  0.53738768    -0.70600
O437        O  0.50113908  0.99998704  0.54038975    -0.70200
O438        O  0.46208146  0.96420495  0.96261701    -0.61400
O439        O  0.01813777  0.94277487  0.51751137    -0.73900
O440        O  0.44564175  0.52177098  0.98650048    -0.72700
Cu441      Cu  0.01956737  0.51910334  0.99819044     1.04600
Cu442      Cu  0.48043834  0.98089387  0.50181438     1.04500
C443        C  0.45231739  0.55179932  0.97947951     0.93600
C444        C  0.04768821  0.94819752  0.52052569     0.92700
C445        C  0.47423738  0.97661931  0.94883620     0.84900
C446        C  0.02576852  0.52337802  0.55116855     0.91100
N447        N  0.38223310  0.61694273  0.95844862    -0.27000
N448        N  0.38723963  0.62062905  0.93797379    -0.34800
C449        C  0.41372341  0.59885709  0.94288550     0.01400
C450        C  0.42542944  0.58012074  0.96728340     0.07400
C451        C  0.40483799  0.59194493  0.97654963    -0.05700
H452        H  0.42276937  0.59582067  0.92910538     0.08100
H453        H  0.40635396  0.58326869  0.49517134     0.09300
Cu454      Cu  0.35605958  0.65215001  0.90280946     0.44200
Cu455      Cu  0.34601640  0.64703190  0.96162958     0.42000
Cu456      Cu  0.28964055  0.70476405  0.90280445     0.43900
N457        N  0.31936900  0.68343482  0.86927858    -0.34300
N458        N  0.29518659  0.70285635  0.86951419    -0.28600
C459        C  0.27567420  0.72051352  0.84512227    -0.04700
C460        C  0.28804471  0.71159697  0.82868863     0.07500
C461        C  0.31572467  0.68799136  0.84456268     0.01300
H462        H  0.25407418  0.73849184  0.83977547     0.09000
H463        H  0.33215967  0.67531090  0.83872193     0.08000
N464        N  0.28977561  0.70435602  0.93879985    -0.35800
N465        N  0.31034163  0.68331364  0.96050023    -0.28000
C466        C  0.30455767  0.69041437  0.98063173    -0.03200
C467        C  0.27910338  0.71728255  0.97109607     0.05400
C468        C  0.27037995  0.72531706  0.94444374     0.03500
H469        H  0.31846174  0.67750943  0.50091004     0.08600
H470        H  0.25113025  0.74478148  0.92999990     0.07400
N471        N  0.11777337  0.88305653  0.54155545    -0.27000
N472        N  0.11276713  0.87936836  0.56203226    -0.34800
C473        C  0.08628327  0.90113936  0.55712007     0.01400
C474        C  0.07457658  0.91987719  0.53272085     0.07400
C475        C  0.09516895  0.90805267  0.52345586    -0.05700
H476        H  0.07723828  0.90417467  0.57089883     0.08100
H477        H  0.09365156  0.91673256  0.00482839     0.09300
Cu478      Cu  0.14394759  0.84784711  0.59719609     0.44200
Cu479      Cu  0.15399082  0.85296784  0.53837674     0.42000
Cu480      Cu  0.21036408  0.79523054  0.59719903     0.43900
N481        N  0.18063964  0.81655974  0.63072654    -0.34300
N482        N  0.20481914  0.79713841  0.63049013    -0.28600
C483        C  0.22433311  0.77948010  0.65488221    -0.04700
C484        C  0.21196430  0.78839747  0.67131637     0.07500
C485        C  0.18428494  0.81200388  0.65544369     0.01300
H486        H  0.24593181  0.76150194  0.66022774     0.09000
H487        H  0.16785457  0.82468306  0.66128402     0.08000
N488        N  0.21022932  0.79564336  0.56120348    -0.35800
N489        N  0.18966530  0.81668657  0.53950591    -0.28000
C490        C  0.19544826  0.80958891  0.51937277    -0.03200
C491        C  0.22090157  0.78271995  0.52890722     0.05400
C492        C  0.22962507  0.77468262  0.55555872     0.03500
H493        H  0.18154829  0.82249230  0.99910237     0.08600
H494        H  0.24887243  0.75521807  0.57000055     0.07400
O495        O  0.19441173  0.73113879  0.73603414    -0.72600
O496        O  0.27097401  0.80602064  0.76879930    -0.73600
O497        O  0.21370505  0.78776603  0.71348359    -0.62200
O498        O  0.25105971  0.74974452  0.79031197    -0.70600
O499        O  0.28630438  0.71222918  0.78652181    -0.70200
O500        O  0.24894944  0.75025038  0.70969335    -0.61400
O501        O  0.30559737  0.76885622  0.76397109    -0.73900
O502        O  0.22903554  0.69397465  0.73120633    -0.72700
Cu503      Cu  0.23131307  0.77004372  0.75226006     1.04600
Cu504      Cu  0.26869621  0.72995158  0.74774537     1.04300
C505        C  0.19973499  0.70079693  0.72834755     0.93600
C506        C  0.30027411  0.79919867  0.77165816     0.92700
C507        C  0.22544438  0.77491645  0.69948691     0.84900
C508        C  0.27456485  0.72507847  0.80051842     0.91100
N509        N  0.12843870  0.63686660  0.70663347    -0.27000
N510        N  0.13479611  0.63176430  0.68699496    -0.34800
C511        C  0.16129401  0.65343054  0.69200041     0.01400
C512        C  0.17169746  0.67363405  0.71555737     0.07400
C513        C  0.15025352  0.66272181  0.72426240    -0.05700
H514        H  0.17171421  0.65488760  0.67908023     0.08100
H515        H  0.15113283  0.67209285  0.74250158     0.09300
Cu516      Cu  0.10640159  0.59738619  0.65315286     0.44200
Cu517      Cu  0.09259128  0.60616830  0.71000648     0.42000
Cu518      Cu  0.04379256  0.54098155  0.65485948     0.43900
N519        N  0.07151040  0.56405962  0.62036966    -0.34300
N520        N  0.04853909  0.54335441  0.62117528    -0.28600
C521        C  0.02899766  0.52567546  0.59678194    -0.04700
C522        C  0.04013549  0.53585613  0.57976763     0.07500
C523        C  0.06714665  0.56020036  0.59532690     0.01300
H524        H  0.00799982  0.50708763  0.59173497     0.09000
H525        H  0.08228035  0.57428237  0.58888385     0.08000
N526        N  0.04204124  0.54352547  0.68998570    -0.35800
N527        N  0.05929452  0.56764025  0.71013357    -0.28000
C528        C  0.05235151  0.56173223  0.72976728    -0.03200
C529        C  0.02976096  0.53236583  0.72156152     0.05400
C530        C  0.02384681  0.52166443  0.69620478     0.03500
H531        H  0.06350693  0.57719750  0.74884339     0.08600
H532        H  0.00715724  0.49982131  0.68296244     0.07400
N533        N  0.37157148  0.86312655  0.79337262    -0.27000
N534        N  0.36521581  0.86822814  0.81301150    -0.34800
C535        C  0.33871698  0.84656206  0.80800617     0.01400
C536        C  0.32831272  0.82636020  0.78444797     0.07400
C537        C  0.34975565  0.83727243  0.77574297    -0.05700
H538        H  0.32829984  0.84510476  0.82092358     0.08100
H539        H  0.34887516  0.82790133  0.75750154     0.09300
Cu540      Cu  0.39361065  0.90260610  0.84685397     0.44200
Cu541      Cu  0.40741808  0.89382657  0.78999942     0.42000
Cu542      Cu  0.45621418  0.95901778  0.84514479     0.43900
N543        N  0.42849885  0.93593583  0.87963582    -0.34300
N544        N  0.45146815  0.95664354  0.87882968    -0.28600
C545        C  0.47100782  0.97432383  0.90322267    -0.04700
C546        C  0.45987089  0.96414125  0.92023721     0.07500
C547        C  0.43286192  0.93979459  0.90467844     0.01300
H548        H  0.49200412  0.99291446  0.90826941     0.09000
H549        H  0.41772956  0.92571037  0.91112165     0.08000
N550        N  0.45796350  0.95647428  0.81001758    -0.35800
N551        N  0.44071054  0.93235707  0.78987064    -0.28000
C552        C  0.44765055  0.93826471  0.77023549    -0.03200
C553        C  0.47023871  0.96763323  0.77843835     0.05400
C554        C  0.47615442  0.97833589  0.80379564     0.03500
H555        H  0.43649379  0.92279653  0.75115941     0.08600
H556        H  0.49284361  0.00018141  0.81703688     0.07400
C557        C  0.49476315  0.96258958  0.74872840     0.23900
C558        C  0.48511496  0.98420121  0.76361695    -0.24200
C559        C  0.49046714  0.52181140  0.76469633     0.18800
C560        C  0.00523387  0.53741035  0.75126925     0.23900
C561        C  0.01488239  0.51579840  0.73638104    -0.24100
C562        C  0.00952954  0.97818880  0.73530111     0.18800
F563        F  0.01966488  0.95622928  0.72201968    -0.14100
F564        F  0.49108565  0.92613479  0.74795201    -0.16400
F565        F  0.00891160  0.57386518  0.75204560    -0.16400
F566        F  0.48033074  0.54377081  0.77797701    -0.14100
C567        C  0.24595575  0.72936129  0.51841316     0.23900
C568        C  0.23558056  0.76593135  0.51396906    -0.24200
C569        C  0.23976418  0.78635911  0.49537176     0.18800
C570        C  0.25404807  0.77064081  0.98158902     0.23900
C571        C  0.26442347  0.73407112  0.98603318    -0.24100
C572        C  0.26023948  0.71364302  0.00463023     0.18800
F573        F  0.26881963  0.67802585  0.00881415    -0.14100
F574        F  0.24123221  0.70830546  0.53540219    -0.16400
F575        F  0.25877138  0.79169618  0.96459967    -0.16400
F576        F  0.23118329  0.82197606  0.49118723    -0.14100
O577        O  0.98186788  0.05722210  0.48249350    -0.72600
O578        O  0.55436357  0.47822615  0.01350440    -0.73600
O579        O  0.49886700  0.00001040  0.45961501    -0.62200
O580        O  0.53792437  0.03579213  0.03738723    -0.70600
O581        O  0.00113881  0.49998696  0.04038973    -0.70200
O582        O  0.96208163  0.46420536  0.46261673    -0.61400
O583        O  0.51813693  0.44277486  0.01751131    -0.73900
O584        O  0.94564147  0.02177074  0.48650050    -0.72700
Cu585      Cu  0.51956730  0.01910300  0.49819042     1.04600
Cu586      Cu  0.98043841  0.48089403  0.00181423     1.04500
C587        C  0.95231710  0.05179917  0.47947952     0.93600
C588        C  0.54768781  0.44819788  0.02052574     0.92700
C589        C  0.97423800  0.47661996  0.44883608     0.84900
C590        C  0.52576808  0.02337754  0.05116833     0.91100
N591        N  0.88223334  0.11694247  0.45844857    -0.27000
N592        N  0.88723887  0.12062903  0.43797526    -0.34800
C593        C  0.91372356  0.09885682  0.44288608     0.01400
C594        C  0.92542899  0.08012074  0.46728382     0.07400
C595        C  0.90483866  0.09194417  0.47655050    -0.05700
H596        H  0.92276632  0.09582205  0.42910861     0.08100
H597        H  0.90635283  0.08326925  0.99517293     0.09300
Cu598      Cu  0.85605924  0.15215009  0.40280966     0.44200
Cu599      Cu  0.84601639  0.14703186  0.46162965     0.42000
Cu600      Cu  0.78964046  0.20476411  0.40280430     0.43900
N601        N  0.81936889  0.18343483  0.36927850    -0.34300
N602        N  0.79518531  0.20285733  0.36951363    -0.28600
C603        C  0.77567382  0.22051376  0.34512182    -0.04700
C604        C  0.78804478  0.21159697  0.32868822     0.07500
C605        C  0.81572471  0.18799120  0.34456304     0.01300
H606        H  0.75407194  0.23849390  0.33977373     0.09000
H607        H  0.83216142  0.17530884  0.33872197     0.08000
N608        N  0.78977550  0.20435610  0.43879952    -0.35800
N609        N  0.81034204  0.18331324  0.46050034    -0.28000
C610        C  0.80455845  0.19041361  0.48063166    -0.03200
C611        C  0.77910426  0.21728175  0.47109682     0.05400
C612        C  0.77038027  0.22531675  0.44444401     0.03500
H613        H  0.81846439  0.17750649  0.00091134     0.08600
H614        H  0.75113125  0.24478076  0.43000107     0.07400
N615        N  0.61777262  0.38305710  0.04155531    -0.27000
N616        N  0.61276566  0.37936926  0.06203277    -0.34800
C617        C  0.58628252  0.40113990  0.05712022     0.01400
C618        C  0.57457517  0.41987770  0.03272163     0.07400
C619        C  0.59516793  0.40805343  0.02345608    -0.05700
H620        H  0.57723411  0.40417720  0.07090265     0.08100
H621        H  0.59365084  0.41673268  0.50482895     0.09300
Cu622      Cu  0.64394717  0.34784725  0.09719609     0.44200
Cu623      Cu  0.65399046  0.35296802  0.03837675     0.42000
Cu624      Cu  0.71036392  0.29523059  0.09719888     0.43900
N625        N  0.68063817  0.31656077  0.13072636    -0.34300
N626        N  0.70481930  0.29713822  0.13048987    -0.28600
C627        C  0.72433226  0.27948081  0.15488155    -0.04700
C628        C  0.71196376  0.28839794  0.17131629     0.07500
C629        C  0.68428393  0.31200456  0.15544297     0.01300
H630        H  0.74593300  0.26150084  0.16022778     0.09000
H631        H  0.66785157  0.32468523  0.16128422     0.08000
N632        N  0.71022925  0.29564331  0.06120315    -0.35800
N633        N  0.68966576  0.31668596  0.03950600    -0.28000
C634        C  0.69544885  0.30958829  0.01937272    -0.03200
C635        C  0.72090208  0.28271951  0.02890739     0.05400
C636        C  0.72962553  0.27468219  0.05555870     0.03500
H637        H  0.68154717  0.32249328  0.49909950     0.08600
H638        H  0.74887247  0.25521856  0.07000015     0.07400
O639        O  0.69441174  0.23113882  0.23603405    -0.72600
O640        O  0.77097433  0.30602068  0.26879938    -0.73600
O641        O  0.71370493  0.28776628  0.21348358    -0.62200
O642        O  0.75105985  0.24974454  0.29031201    -0.70600
O643        O  0.78630442  0.21222926  0.28652170    -0.70200
O644        O  0.74894926  0.25025075  0.20969320    -0.61400
O645        O  0.80559774  0.26885639  0.26397116    -0.73900
O646        O  0.72903569  0.19397474  0.23120634    -0.72700
Cu647      Cu  0.73131318  0.27004378  0.25226008     1.04600
Cu648      Cu  0.76869626  0.22995173  0.24774532     1.04300
C649        C  0.69973526  0.20079662  0.22834719     0.93600
C650        C  0.80027510  0.29919828  0.27165810     0.92700
C651        C  0.72544395  0.27491700  0.19948678     0.84900
C652        C  0.77456475  0.22507874  0.30051830     0.91100
N653        N  0.62843928  0.13686683  0.20663285    -0.27000
N654        N  0.63479568  0.13176430  0.18699556    -0.34800
C655        C  0.66129451  0.15343082  0.19200023     0.01400
C656        C  0.67169728  0.17363401  0.21555710     0.07400
C657        C  0.65025436  0.16272268  0.22426229    -0.05700
H658        H  0.67171144  0.15488724  0.17908269     0.08100
H659        H  0.65113354  0.17209369  0.24250030     0.09300
Cu660      Cu  0.60640122  0.09738605  0.15315282     0.44200
Cu661      Cu  0.59259148  0.10616856  0.21000653     0.42000
Cu662      Cu  0.54379236  0.04098135  0.15485900     0.43900
N663        N  0.57151157  0.06406085  0.12036913    -0.34300
N664        N  0.54853749  0.04335312  0.12117459    -0.28600
C665        C  0.52899804  0.02567583  0.09678171    -0.04700
C666        C  0.54013631  0.03585701  0.07976678     0.07500
C667        C  0.56714745  0.06020133  0.09532755     0.01300
H668        H  0.50799771  0.00708493  0.09173284     0.09000
H669        H  0.58228629  0.07428839  0.08888247     0.08000
N670        N  0.54204176  0.04352605  0.18998592    -0.35800
N671        N  0.55929474  0.06764042  0.21013319    -0.28000
C672        C  0.55235227  0.06173310  0.22976745    -0.03200
C673        C  0.52976191  0.03236678  0.22156207     0.05400
C674        C  0.52384723  0.02166492  0.19620527     0.03500
H675        H  0.56350834  0.07719887  0.24884314     0.08600
H676        H  0.50715891  0.99982368  0.18296413     0.07400
N677        N  0.87157208  0.36312755  0.29337378    -0.27000
N678        N  0.86521634  0.36822837  0.31301137    -0.34800
C679        C  0.83871733  0.34656210  0.30800630     0.01400
C680        C  0.82831333  0.32636076  0.28444870     0.07400
C681        C  0.84975619  0.33727282  0.27574309    -0.05700
H682        H  0.82830017  0.34510542  0.32092453     0.08100
H683        H  0.84887684  0.32790486  0.25750613     0.09300
Cu684      Cu  0.89361092  0.40260638  0.34685436     0.44200
Cu685      Cu  0.90741822  0.39382682  0.28999950     0.42000
Cu686      Cu  0.95621420  0.45901777  0.34514445     0.43900
N687        N  0.92849850  0.43593545  0.37963582    -0.34300
N688        N  0.95146971  0.45664488  0.37882947    -0.28600
C689        C  0.97100829  0.47432417  0.40322169    -0.04700
C690        C  0.95987199  0.46414220  0.42023724     0.07500
C691        C  0.93286254  0.43979516  0.40467796     0.01300
H692        H  0.99200905  0.49291873  0.40826959     0.09000
H693        H  0.91772905  0.42571039  0.41112219     0.08000
N694        N  0.95796405  0.45647488  0.31001774    -0.35800
N695        N  0.94071044  0.43235689  0.28987001    -0.28000
C696        C  0.94765096  0.43826517  0.27023545    -0.03200
C697        C  0.97023949  0.46763394  0.27843865     0.05400
C698        C  0.97615467  0.47833595  0.30379592     0.03500
H699        H  0.93649461  0.42279747  0.25115892     0.08600
H700        H  0.99284592  0.50018415  0.31703891     0.07400
C701        C  0.99476326  0.46258958  0.24872840     0.23900
C702        C  0.98511529  0.48420124  0.26361697    -0.24200
C703        C  0.99046731  0.02181143  0.26469631     0.18800
C704        C  0.50523400  0.03741043  0.25126929     0.23900
C705        C  0.51488291  0.01579857  0.23638132    -0.24100
C706        C  0.50952963  0.47818870  0.23530109     0.18800
F707        F  0.51966494  0.45622917  0.22201971    -0.14100
F708        F  0.99108578  0.42613478  0.24795216    -0.16400
F709        F  0.50891167  0.07386515  0.25204571    -0.16400
F710        F  0.98033095  0.04377078  0.27797690    -0.14100
C711        C  0.74595585  0.22936110  0.01841318     0.23900
C712        C  0.73558084  0.26593114  0.01396912    -0.24200
C713        C  0.73976430  0.28635890  0.99537178     0.18800
C714        C  0.75404818  0.27064050  0.48158900     0.23900
C715        C  0.76442380  0.23407103  0.48603330    -0.24100
C716        C  0.76023964  0.21364270  0.50463036     0.18800
F717        F  0.76881974  0.17802564  0.50881428    -0.14100
F718        F  0.74123222  0.20830547  0.03540220    -0.16400
F719        F  0.75877135  0.29169612  0.46459959    -0.16400
F720        F  0.73118338  0.32197594  0.99118732    -0.14100
O721        O  0.98186781  0.05722225  0.98249351    -0.72600
O722        O  0.55436364  0.47822601  0.51350442    -0.73600
O723        O  0.49886686  0.00001042  0.95961496    -0.62200
O724        O  0.53792448  0.03579219  0.53738736    -0.70600
O725        O  0.00113891  0.49998697  0.54038976    -0.70200
O726        O  0.96208164  0.46420532  0.96261672    -0.61400
O727        O  0.51813702  0.44277482  0.51751138    -0.73900
O728        O  0.94564148  0.02177081  0.98650050    -0.72700
Cu729      Cu  0.51956720  0.01910305  0.99819032     1.04600
Cu730      Cu  0.98043844  0.48089396  0.50181430     1.04500
C731        C  0.95231707  0.05179924  0.97947971     0.93600
C732        C  0.54768779  0.44819775  0.52052588     0.92700
C733        C  0.97423795  0.47661994  0.94883604     0.84900
C734        C  0.52576864  0.02337803  0.55116823     0.91100
N735        N  0.88223288  0.11694284  0.95844903    -0.27000
N736        N  0.88723923  0.12062931  0.93797428    -0.34800
C737        C  0.91372304  0.09885725  0.94288589     0.01400
C738        C  0.92542905  0.08012074  0.96728403     0.07400
C739        C  0.90483753  0.09194518  0.97655013    -0.05700
H740        H  0.92276767  0.09582095  0.92910614     0.08100
H741        H  0.90635437  0.08326926  0.49517111     0.09300
Cu742      Cu  0.85605941  0.15215015  0.90280960     0.44200
Cu743      Cu  0.84601634  0.14703197  0.96162949     0.42000
Cu744      Cu  0.78964048  0.20476412  0.90280429     0.43900
N745        N  0.81936898  0.18343483  0.86927852    -0.34300
N746        N  0.79518541  0.20285727  0.86951367    -0.28600
C747        C  0.77567386  0.22051371  0.84512185    -0.04700
C748        C  0.78804479  0.21159697  0.82868824     0.07500
C749        C  0.81572475  0.18799122  0.84456303     0.01300
H750        H  0.75407199  0.23849383  0.83977380     0.09000
H751        H  0.83216141  0.17530891  0.83872194     0.08000
N752        N  0.78977550  0.20435612  0.93879951    -0.35800
N753        N  0.81034197  0.18331330  0.96050017    -0.28000
C754        C  0.80455846  0.19041358  0.98063162    -0.03200
C755        C  0.77910425  0.21728176  0.97109676     0.05400
C756        C  0.77038024  0.22531678  0.94444401     0.03500
H757        H  0.81846461  0.17750635  0.50091185     0.08600
H758        H  0.75113116  0.24478085  0.93000104     0.07400
N759        N  0.61777285  0.38305675  0.54155570    -0.27000
N760        N  0.61276601  0.37936889  0.56203300    -0.34800
C761        C  0.58628277  0.40113961  0.55712061     0.01400
C762        C  0.57457552  0.41987746  0.53272193     0.07400
C763        C  0.59516811  0.40805312  0.52345642    -0.05700
H764        H  0.57723486  0.40417642  0.57090262     0.08100
H765        H  0.59365061  0.41673305  0.00482888     0.09300
Cu766      Cu  0.64394726  0.34784718  0.59719617     0.44200
Cu767      Cu  0.65399052  0.35296798  0.53837676     0.42000
Cu768      Cu  0.71036391  0.29523062  0.59719885     0.43900
N769        N  0.68063819  0.31656078  0.63072641    -0.34300
N770        N  0.70481929  0.29713825  0.63048989    -0.28600
C771        C  0.72433226  0.27948081  0.65488159    -0.04700
C772        C  0.71196376  0.28839792  0.67131633     0.07500
C773        C  0.68428397  0.31200452  0.65544304     0.01300
H774        H  0.74593293  0.26150087  0.66022782     0.09000
H775        H  0.66785162  0.32468518  0.66128431     0.08000
N776        N  0.71022925  0.29564332  0.56120313    -0.35800
N777        N  0.68966570  0.31668603  0.53950583    -0.28000
C778        C  0.69544887  0.30958827  0.51937267    -0.03200
C779        C  0.72090208  0.28271953  0.52890731     0.05400
C780        C  0.72962551  0.27468222  0.55555868     0.03500
H781        H  0.68154737  0.32249313  0.99910001     0.08600
H782        H  0.74887239  0.25521865  0.57000009     0.07400
O783        O  0.69441172  0.23113886  0.73603411    -0.72600
O784        O  0.77097426  0.30602075  0.76879933    -0.73600
O785        O  0.71370499  0.28776623  0.71348368    -0.62200
O786        O  0.75105984  0.24974455  0.79031204    -0.70600
O787        O  0.78630442  0.21222927  0.78652172    -0.70200
O788        O  0.74894928  0.25025067  0.70969326    -0.61400
O789        O  0.80559744  0.26885623  0.76397100    -0.73900
O790        O  0.72903558  0.19397474  0.73120636    -0.72700
Cu791      Cu  0.73131313  0.27004386  0.75226014     1.04600
Cu792      Cu  0.76869616  0.22995171  0.74774534     1.04300
C793        C  0.69973514  0.20079680  0.72834738     0.93600
C794        C  0.80027421  0.29919878  0.77165796     0.92700
C795        C  0.72544404  0.27491689  0.69948687     0.84900
C796        C  0.77456475  0.22507875  0.80051832     0.91100
N797        N  0.62843903  0.13686652  0.70663267    -0.27000
N798        N  0.63479544  0.13176422  0.68699578    -0.34800
C799        C  0.66129444  0.15343081  0.69200048     0.01400
C800        C  0.67169709  0.17363381  0.71555722     0.07400
C801        C  0.65025426  0.16272248  0.72426254    -0.05700
H802        H  0.67171135  0.15488694  0.67908302     0.08100
H803        H  0.65113339  0.17209242  0.74249979     0.09300
Cu804      Cu  0.60640114  0.09738596  0.65315270     0.44200
Cu805      Cu  0.59259145  0.10616856  0.71000650     0.42000
Cu806      Cu  0.54379242  0.04098144  0.65485892     0.43900
N807        N  0.57151097  0.06406028  0.62036905    -0.34300
N808        N  0.54853794  0.04335349  0.62117444    -0.28600
C809        C  0.52899786  0.02567565  0.59678143    -0.04700
C810        C  0.54013563  0.03585632  0.57976678     0.07500
C811        C  0.56714702  0.06020084  0.59532692     0.01300
H812        H  0.50799711  0.00708459  0.59173279     0.09000
H813        H  0.58228308  0.07428498  0.58888271     0.08000
N814        N  0.54204157  0.04352591  0.68998538    -0.35800
N815        N  0.55929465  0.06764042  0.71013291    -0.28000
C816        C  0.55235204  0.06173298  0.72976690    -0.03200
C817        C  0.52976180  0.03236681  0.72156177     0.05400
C818        C  0.52384702  0.02166473  0.69620469     0.03500
H819        H  0.56350834  0.07720006  0.74884345     0.08600
H820        H  0.50715935  0.99982445  0.68296388     0.07400
N821        N  0.87157171  0.36312688  0.79337278    -0.27000
N822        N  0.86521599  0.36822824  0.81301158    -0.34800
C823        C  0.83871717  0.34656197  0.80800605     0.01400
C824        C  0.82831299  0.32636030  0.78444763     0.07400
C825        C  0.84975620  0.33727298  0.77574291    -0.05700
H826        H  0.82830009  0.34510463  0.82092322     0.08100
H827        H  0.84887643  0.32790239  0.75750111     0.09300
Cu828      Cu  0.89361074  0.40260614  0.84685410     0.44200
Cu829      Cu  0.90741779  0.39382642  0.78999927     0.42000
Cu830      Cu  0.95621403  0.45901758  0.84514435     0.43900
N831        N  0.92849843  0.43593538  0.87963575    -0.34300
N832        N  0.95146966  0.45664484  0.87882944    -0.28600
C833        C  0.97100825  0.47432415  0.90322167    -0.04700
C834        C  0.95987194  0.46414216  0.92023721     0.07500
C835        C  0.93286248  0.43979510  0.90467790     0.01300
H836        H  0.99200902  0.49291872  0.90826958     0.09000
H837        H  0.91772899  0.42571033  0.91112213     0.08000
N838        N  0.95796238  0.45647282  0.81001675    -0.35800
N839        N  0.94071047  0.43235707  0.78987026    -0.28000
C840        C  0.94765080  0.43826506  0.77023511    -0.03200
C841        C  0.97023847  0.46763275  0.77843816     0.05400
C842        C  0.97615431  0.47833564  0.80379570     0.03500
H843        H  0.93649396  0.42279643  0.75115800     0.08600
H844        H  0.99283997  0.50017611  0.81703496     0.07400
C845        C  0.99476318  0.46258938  0.74872837     0.23900
C846        C  0.98511516  0.48420163  0.76361723    -0.24200
C847        C  0.99046720  0.02181116  0.76469621     0.18800
C848        C  0.50523393  0.03741045  0.75126930     0.23900
C849        C  0.51488270  0.01579846  0.73638107    -0.24100
C850        C  0.50952959  0.47818876  0.73530123     0.18800
F851        F  0.51966496  0.45622922  0.72201987    -0.14100
F852        F  0.99108576  0.42613478  0.74795196    -0.16400
F853        F  0.50891172  0.07386511  0.75204569    -0.16400
F854        F  0.98033093  0.04377068  0.77797689    -0.14100
C855        C  0.74595584  0.22936111  0.51841314     0.23900
C856        C  0.73558088  0.26593111  0.51396913    -0.24200
C857        C  0.73976432  0.28635892  0.49537176     0.18800
C858        C  0.75404817  0.27064050  0.98158900     0.23900
C859        C  0.76442384  0.23407100  0.98603334    -0.24100
C860        C  0.76023971  0.21364273  0.00463039     0.18800
F861        F  0.76881987  0.17802569  0.00881432    -0.14100
F862        F  0.74123223  0.20830548  0.53540219    -0.16400
F863        F  0.75877135  0.29169610  0.96459961    -0.16400
F864        F  0.73118338  0.32197595  0.49118731    -0.14100
O865        O  0.98186785  0.55722230  0.48249351    -0.72600
O866        O  0.55436383  0.97822613  0.01350436    -0.73600
O867        O  0.49886687  0.50001047  0.45961493    -0.62200
O868        O  0.53792431  0.53579209  0.03738762    -0.70600
O869        O  0.00113873  0.99998677  0.04038978    -0.70200
O870        O  0.96208141  0.96420492  0.46261691    -0.61400
O871        O  0.51813731  0.94277487  0.01751136    -0.73900
O872        O  0.94564147  0.52177100  0.48650049    -0.72700
Cu873      Cu  0.51956723  0.51910305  0.49819036     1.04600
Cu874      Cu  0.98043820  0.98089376  0.00181428     1.04500
C875        C  0.95231705  0.55179935  0.47947955     0.93600
C876        C  0.54768797  0.94819766  0.02052584     0.92700
C877        C  0.97423744  0.97661938  0.44883607     0.84900
C878        C  0.52576813  0.52337771  0.05116855     0.91100
N879        N  0.88223280  0.61694294  0.45844904    -0.27000
N880        N  0.88723882  0.62062957  0.43797429    -0.34800
C881        C  0.91372265  0.59885765  0.44288557     0.01400
C882        C  0.92542891  0.58012099  0.46728374     0.07400
C883        C  0.90483768  0.59194528  0.47655010    -0.05700
H884        H  0.92276680  0.59582210  0.42910574     0.08100
H885        H  0.90635552  0.58326751  0.99517266     0.09300
Cu886      Cu  0.85605936  0.65215010  0.40280960     0.44200
Cu887      Cu  0.84601628  0.64703208  0.46162965     0.42000
Cu888      Cu  0.78964066  0.70476405  0.40280434     0.43900
N889        N  0.81936846  0.68343519  0.36927840    -0.34300
N890        N  0.79518667  0.70285630  0.36951388    -0.28600
C891        C  0.77567396  0.72051379  0.34512175    -0.04700
C892        C  0.78804481  0.71159690  0.32868844     0.07500
C893        C  0.81572448  0.68799147  0.34456237     0.01300
H894        H  0.75407519  0.73849130  0.33977513     0.09000
H895        H  0.83215932  0.67531105  0.33872193     0.08000
N896        N  0.78977580  0.70435590  0.43879988    -0.35800
N897        N  0.81034161  0.68331371  0.46050011    -0.28000
C898        C  0.80455786  0.69041419  0.48063176    -0.03200
C899        C  0.77910353  0.71728238  0.47109614     0.05400
C900        C  0.77038008  0.72531703  0.44444384     0.03500
H901        H  0.81846236  0.67750894  0.00090922     0.08600
H902        H  0.75113081  0.74478140  0.43000028     0.07400
N903        N  0.61777285  0.88305684  0.04155566    -0.27000
N904        N  0.61276674  0.87936870  0.06203194    -0.34800
C905        C  0.58628276  0.90113965  0.05712011     0.01400
C906        C  0.57457603  0.91987728  0.03272143     0.07400
C907        C  0.59516792  0.90805351  0.02345583    -0.05700
H908        H  0.57723748  0.90417512  0.07089952     0.08100
H909        H  0.59365070  0.91673300  0.50482840     0.09300
Cu910      Cu  0.64394733  0.84784724  0.09719601     0.44200
Cu911      Cu  0.65399061  0.85296794  0.03837661     0.42000
Cu912      Cu  0.71036391  0.79523064  0.09719896     0.43900
N913        N  0.68063852  0.81656058  0.13072644    -0.34300
N914        N  0.70481920  0.79713833  0.13048984    -0.28600
C915        C  0.72433251  0.77948064  0.15488164    -0.04700
C916        C  0.71196382  0.78839786  0.17131628     0.07500
C917        C  0.68428426  0.81200440  0.15544316     0.01300
H918        H  0.74593225  0.76150179  0.16022747     0.09000
H919        H  0.66785190  0.82468517  0.16128441     0.08000
N920        N  0.71022927  0.79564334  0.06120349    -0.35800
N921        N  0.68966541  0.81668637  0.03950592    -0.28000
C922        C  0.69544860  0.80958860  0.01937288    -0.03200
C923        C  0.72090192  0.78271971  0.02890752     0.05400
C924        C  0.72962521  0.77468245  0.05555889     0.03500
H925        H  0.68154799  0.82249243  0.49910033     0.08600
H926        H  0.74887248  0.75521783  0.07000078     0.07400
O927        O  0.69441167  0.73113869  0.23603404    -0.72600
O928        O  0.77097419  0.80602041  0.26879928    -0.73600
O929        O  0.71370499  0.78776612  0.21348361    -0.62200
O930        O  0.75105976  0.74974452  0.29031196    -0.70600
O931        O  0.78630439  0.71222920  0.28652171    -0.70200
O932        O  0.74894931  0.75025056  0.20969324    -0.61400
O933        O  0.80559749  0.76885605  0.26397099    -0.73900
O934        O  0.72903556  0.69397461  0.23120630    -0.72700
Cu935      Cu  0.73131311  0.77004366  0.25226008     1.04600
Cu936      Cu  0.76869619  0.72995152  0.24774529     1.04300
C937        C  0.69973509  0.70079663  0.22834722     0.93600
C938        C  0.80027461  0.79919801  0.27165791     0.92700
C939        C  0.72544422  0.77491665  0.19948685     0.84900
C940        C  0.77456468  0.72507869  0.30051833     0.91100
N941        N  0.62843883  0.63686644  0.20663270    -0.27000
N942        N  0.63479509  0.63176398  0.18699585    -0.34800
C943        C  0.66129406  0.65343039  0.19200025     0.01400
C944        C  0.67169691  0.67363361  0.21555700     0.07400
C945        C  0.65025418  0.66272247  0.22426246    -0.05700
H946        H  0.67171043  0.65488591  0.17908263     0.08100
H947        H  0.65113343  0.67209256  0.24249973     0.09300
Cu948      Cu  0.60640132  0.59738601  0.15315285     0.44200
Cu949      Cu  0.59259122  0.60616844  0.21000658     0.42000
Cu950      Cu  0.54379250  0.54098156  0.15485941     0.43900
N951        N  0.57151026  0.56405953  0.12036959    -0.34300
N952        N  0.54853897  0.54335435  0.12117525    -0.28600
C953        C  0.52899749  0.52567538  0.09678193    -0.04700
C954        C  0.54013543  0.53585615  0.07976758     0.07500
C955        C  0.56714647  0.56020026  0.09532684     0.01300
H956        H  0.50799989  0.50708777  0.09173501     0.09000
H957        H  0.58228038  0.57428248  0.08888376     0.08000
N958        N  0.54204170  0.54352612  0.18998584    -0.35800
N959        N  0.55929452  0.56764029  0.21013323    -0.28000
C960        C  0.55235175  0.56173258  0.22976727    -0.03200
C961        C  0.52976136  0.53236636  0.22156155     0.05400
C962        C  0.52384696  0.52166470  0.19620481     0.03500
H963        H  0.56350740  0.57719802  0.24884297     0.08600
H964        H  0.50715882  0.49982329  0.18296332     0.07400
N965        N  0.87157176  0.86312705  0.29337315    -0.27000
N966        N  0.86521602  0.86822801  0.31301111    -0.34800
C967        C  0.83871708  0.84656170  0.30800593     0.01400
C968        C  0.82831301  0.82636028  0.28444820     0.07400
C969        C  0.84975577  0.83727240  0.27574277    -0.05700
H970        H  0.82829989  0.84510457  0.32092390     0.08100
H971        H  0.84887583  0.82790318  0.25750422     0.09300
Cu972      Cu  0.89361049  0.90260594  0.34685396     0.44200
Cu973      Cu  0.90741814  0.89382671  0.28999930     0.42000
Cu974      Cu  0.95621396  0.95901757  0.34514460     0.43900
N975        N  0.92849828  0.93593533  0.37963566    -0.34300
N976        N  0.95146850  0.95664388  0.37882935    -0.28600
C977        C  0.97100768  0.97432370  0.40322206    -0.04700
C978        C  0.95987089  0.96414124  0.42023704     0.07500
C979        C  0.93286180  0.93979453  0.40467795     0.01300
H980        H  0.99200498  0.99291511  0.40826906     0.09000
H981        H  0.91772816  0.92570946  0.41112185     0.08000
N982        N  0.95796301  0.95647356  0.31001696    -0.35800
N983        N  0.94071103  0.93235765  0.28987047    -0.28000
C984        C  0.94765164  0.93826591  0.27023519    -0.03200
C985        C  0.97023985  0.96763430  0.27843931     0.05400
C986        C  0.97615473  0.97833624  0.30379605     0.03500
H987        H  0.93649708  0.92280121  0.25116149     0.08600
H988        H  0.99284343  0.00018162  0.31703789     0.07400
C989        C  0.99476325  0.96258971  0.24872849     0.23900
C990        C  0.98511564  0.98420131  0.26361734    -0.24200
C991        C  0.99046727  0.52181131  0.26469623     0.18800
C992        C  0.50523393  0.53741045  0.25126921     0.23900
C993        C  0.51488248  0.51579846  0.23638102    -0.24100
C994        C  0.50952969  0.97818874  0.23530123     0.18800
F995        F  0.51966506  0.95622915  0.22201988    -0.14100
F996        F  0.99108578  0.92613475  0.24795215    -0.16400
F997        F  0.50891166  0.57386524  0.25204567    -0.16400
F998        F  0.98033092  0.54377073  0.27797686    -0.14100
C999        C  0.74595572  0.72936127  0.01841311     0.23900
C1000       C  0.73558069  0.76593138  0.01396911    -0.24200
C1001       C  0.73976420  0.78635909  0.99537180     0.18800
C1002       C  0.75404806  0.77064080  0.48158896     0.23900
C1003       C  0.76442351  0.73407108  0.48603316    -0.24100
C1004       C  0.76023953  0.71364299  0.50463026     0.18800
F1005       F  0.76881964  0.67802583  0.50881419    -0.14100
F1006       F  0.74123223  0.70830550  0.03540209    -0.16400
F1007       F  0.75877138  0.79169618  0.46459958    -0.16400
F1008       F  0.73118328  0.82197613  0.99118732    -0.14100
O1009       O  0.98186831  0.55722210  0.98249352    -0.72600
O1010       O  0.55436387  0.97822604  0.51350450    -0.73600
O1011       O  0.49886687  0.50001050  0.95961493    -0.62200
O1012       O  0.53792438  0.53579220  0.53738742    -0.70600
O1013       O  0.00113885  0.99998687  0.54038988    -0.70200
O1014       O  0.96208147  0.96420502  0.96261696    -0.61400
O1015       O  0.51813728  0.94277478  0.51751140    -0.73900
O1016       O  0.94564184  0.52177078  0.98650054    -0.72700
Cu1017     Cu  0.51956727  0.51910309  0.99819043     1.04600
Cu1018     Cu  0.98043840  0.98089376  0.50181438     1.04500
C1019       C  0.95231748  0.55179899  0.97947956     0.93600
C1020       C  0.54768790  0.94819745  0.52052606     0.92700
C1021       C  0.97423712  0.97661910  0.94883629     0.84900
C1022       C  0.52576798  0.52337754  0.55116848     0.91100
N1023       N  0.88223377  0.61694182  0.95844957    -0.27000
N1024       N  0.88723986  0.62062848  0.93797441    -0.34800
C1025       C  0.91372363  0.59885672  0.94288595     0.01400
C1026       C  0.92543000  0.58012017  0.96728378     0.07400
C1027       C  0.90483889  0.59194410  0.97655036    -0.05700
H1028       H  0.92276973  0.59582034  0.92910567     0.08100
H1029       H  0.90635321  0.58326933  0.49517286     0.09300
Cu1030     Cu  0.85605957  0.65214971  0.90280970     0.44200
Cu1031     Cu  0.84601665  0.64703172  0.96162966     0.42000
Cu1032     Cu  0.78964044  0.70476409  0.90280438     0.43900
N1033       N  0.81936893  0.68343471  0.86927860    -0.34300
N1034       N  0.79518654  0.70285629  0.86951420    -0.28600
C1035       C  0.77567416  0.72051354  0.84512232    -0.04700
C1036       C  0.78804475  0.71159695  0.82868867     0.07500
C1037       C  0.81572460  0.68799133  0.84456269     0.01300
H1038       H  0.75407431  0.73849176  0.83977558     0.09000
H1039       H  0.83215971  0.67531079  0.83872193     0.08000
N1040       N  0.78977554  0.70435602  0.93879971    -0.35800
N1041       N  0.81034168  0.68331355  0.96049993    -0.28000
C1042       C  0.80455799  0.69041400  0.98063163    -0.03200
C1043       C  0.77910367  0.71728227  0.97109618     0.05400
C1044       C  0.77037999  0.72531692  0.94444384     0.03500
H1045       H  0.81846210  0.67750934  0.50090936     0.08600
H1046       H  0.75113021  0.74478138  0.93000013     0.07400
N1047       N  0.61777291  0.88305680  0.54155562    -0.27000
N1048       N  0.61276709  0.87936845  0.56203191    -0.34800
C1049       C  0.58628310  0.90113931  0.55712037     0.01400
C1050       C  0.57457617  0.91987710  0.53272158     0.07400
C1051       C  0.59516787  0.90805351  0.52345586    -0.05700
H1052       H  0.57723848  0.90417424  0.57089967     0.08100
H1053       H  0.59365081  0.91673283  0.00482851     0.09300
Cu1054     Cu  0.64394748  0.84784714  0.59719609     0.44200
Cu1055     Cu  0.65399064  0.85296794  0.53837647     0.42000
Cu1056     Cu  0.71036397  0.79523061  0.59719902     0.43900
N1057       N  0.68063903  0.81656018  0.63072641    -0.34300
N1058       N  0.70481913  0.79713839  0.63048988    -0.28600
C1059       C  0.72433282  0.77948040  0.65488171    -0.04700
C1060       C  0.71196440  0.78839743  0.67131622     0.07500
C1061       C  0.68428473  0.81200404  0.65544346     0.01300
H1062       H  0.74593279  0.76150140  0.66022738     0.09000
H1063       H  0.66785424  0.82468324  0.66128415     0.08000
N1064       N  0.71022967  0.79564291  0.56120380    -0.35800
N1065       N  0.68966552  0.81668630  0.53950578    -0.28000
C1066       C  0.69544912  0.80958819  0.51937312    -0.03200
C1067       C  0.72090254  0.78271919  0.52890801     0.05400
C1068       C  0.72962546  0.77468223  0.55555925     0.03500
H1069       H  0.68154681  0.82249370  0.99909976     0.08600
H1070       H  0.74887399  0.75521674  0.57000197     0.07400
O1071       O  0.69441172  0.73113869  0.73603406    -0.72600
O1072       O  0.77097446  0.80602065  0.76879933    -0.73600
O1073       O  0.71370509  0.78776606  0.71348354    -0.62200
O1074       O  0.75105973  0.74974458  0.79031204    -0.70600
O1075       O  0.78630436  0.71222923  0.78652185    -0.70200
O1076       O  0.74894949  0.75025038  0.70969337    -0.61400
O1077       O  0.80559756  0.76885606  0.76397099    -0.73900
O1078       O  0.72903558  0.69397457  0.73120633    -0.72700
Cu1079     Cu  0.73131318  0.77004380  0.75226012     1.04600
Cu1080     Cu  0.76869619  0.72995154  0.74774540     1.04300
C1081       C  0.69973511  0.70079662  0.72834723     0.93600
C1082       C  0.80027395  0.79919911  0.77165814     0.92700
C1083       C  0.72544423  0.77491668  0.69948686     0.84900
C1084       C  0.77456471  0.72507866  0.80051850     0.91100
N1085       N  0.62843883  0.63686646  0.70663272    -0.27000
N1086       N  0.63479510  0.63176399  0.68699586    -0.34800
C1087       C  0.66129406  0.65343039  0.69200026     0.01400
C1088       C  0.67169691  0.67363361  0.71555701     0.07400
C1089       C  0.65025419  0.66272249  0.72426248    -0.05700
H1090       H  0.67171043  0.65488591  0.67908264     0.08100
H1091       H  0.65113344  0.67209258  0.74249975     0.09300
Cu1092     Cu  0.60640143  0.59738612  0.65315289     0.44200
Cu1093     Cu  0.59259122  0.60616846  0.71000659     0.42000
Cu1094     Cu  0.54379261  0.54098167  0.65485920     0.43900
N1095       N  0.57151116  0.56406039  0.62036920    -0.34300
N1096       N  0.54853892  0.54335432  0.62117517    -0.28600
C1097       C  0.52899798  0.52567582  0.59678200    -0.04700
C1098       C  0.54013620  0.53585688  0.57976726     0.07500
C1099       C  0.56714704  0.56020083  0.59532699     0.01300
H1100       H  0.50800081  0.50708861  0.59173493     0.09000
H1101       H  0.58228408  0.57428586  0.58888240     0.08000
N1102       N  0.54204169  0.54352611  0.68998576    -0.35800
N1103       N  0.55929451  0.56764029  0.71013324    -0.28000
C1104       C  0.55235176  0.56173252  0.72976726    -0.03200
C1105       C  0.52976138  0.53236626  0.72156157     0.05400
C1106       C  0.52384700  0.52166465  0.69620473     0.03500
H1107       H  0.56350739  0.57719807  0.74884301     0.08600
H1108       H  0.50715882  0.49982331  0.68296314     0.07400
N1109       N  0.87157155  0.86312651  0.79337241    -0.27000
N1110       N  0.86521694  0.86822849  0.81301063    -0.34800
C1111       C  0.83871728  0.84656220  0.80800587     0.01400
C1112       C  0.82831348  0.82636032  0.78444708     0.07400
C1113       C  0.84975578  0.83727242  0.77574242    -0.05700
H1114       H  0.82830415  0.84510623  0.82092010     0.08100
H1115       H  0.84887580  0.82790049  0.75749874     0.09300
Cu1116     Cu  0.89361098  0.90260626  0.84685381     0.44200
Cu1117     Cu  0.90741824  0.89382667  0.78999916     0.42000
Cu1118     Cu  0.95621442  0.95901799  0.84514468     0.43900
N1119       N  0.92849845  0.93593546  0.87963578    -0.34300
N1120       N  0.95147066  0.95664583  0.87883029    -0.28600
C1121       C  0.97100822  0.97432423  0.90322261    -0.04700
C1122       C  0.95987184  0.96414213  0.92023769     0.07500
C1123       C  0.93286202  0.93979472  0.90467771     0.01300
H1124       H  0.99201170  0.99292091  0.90827244     0.09000
H1125       H  0.91772872  0.92570997  0.91112155     0.08000
N1126       N  0.95796342  0.95647407  0.81001738    -0.35800
N1127       N  0.94071041  0.93235689  0.78987005    -0.28000
C1128       C  0.94765081  0.93826506  0.77023525    -0.03200
C1129       C  0.97023899  0.96763340  0.77843838     0.05400
C1130       C  0.97615444  0.97833573  0.80379572     0.03500
H1131       H  0.93649424  0.92279704  0.75115846     0.08600
H1132       H  0.99284366  0.00018115  0.81703724     0.07400
C1133       C  0.99476320  0.96258950  0.74872837     0.23900
C1134       C  0.98511522  0.98420129  0.76361703    -0.24200
C1135       C  0.99046717  0.52181110  0.76469618     0.18800
C1136       C  0.50523388  0.53741051  0.75126925     0.23900
C1137       C  0.51488248  0.51579844  0.73638105    -0.24100
C1138       C  0.50952953  0.97818887  0.73530115     0.18800
F1139       F  0.51966483  0.95622931  0.72201971    -0.14100
F1140       F  0.99108568  0.92613473  0.74795203    -0.16400
F1141       F  0.50891169  0.57386525  0.75204565    -0.16400
F1142       F  0.98033081  0.54377071  0.77797689    -0.14100
C1143       C  0.74595592  0.72936111  0.51841321     0.23900
C1144       C  0.73558094  0.76593134  0.51396934    -0.24200
C1145       C  0.73976432  0.78635900  0.49537188     0.18800
C1146       C  0.75404814  0.77064081  0.98158894     0.23900
C1147       C  0.76442366  0.73407106  0.98603328    -0.24100
C1148       C  0.76023954  0.71364309  0.00463023     0.18800
F1149       F  0.76881961  0.67802592  0.00881419    -0.14100
F1150       F  0.74123234  0.70830543  0.53540222    -0.16400
F1151       F  0.75877142  0.79169616  0.96459959    -0.16400
F1152       F  0.73118333  0.82197610  0.49118732    -0.14100
loop_ 
_geom_bond_atom_site_label_1 
_geom_bond_atom_site_label_2 
_geom_bond_distance 
_geom_bond_site_symmetry_2 
_ccdc_geom_bond_type 
O1           C11   1.277       .  A
O1         Cu585   2.009       .  S
O2           C12   1.277       .  A
O2         Cu441   2.007   1_554  S
O3          C877   1.276   1_545  A
O3           Cu9   1.995   1_655  S
O4           C14   1.278       .  A
O4         Cu153   2.015   1_554  S
O5          C878   1.276       .  A
O5          Cu10   1.995       .  S
O6           C13   1.278       .  A
O6         Cu154   2.015       .  S
O7           C12   1.277       .  A
O7         Cu586   2.009   1_455  S
O8           C11   1.277       .  A
O8         Cu442   2.007   1_545  S
Cu9         O577   2.009   1_455  S
Cu9         O434   2.007   1_545  S
Cu9         O148   2.015       .  S
Cu9       Cu1018   2.378   1_445  S
Cu10        O150   2.015   1_554  S
Cu10        O583   2.009       .  S
Cu10        O440   2.007   1_554  S
Cu10      Cu1017   2.378   1_554  S
C11          C18   1.462       .  S
C12          C42   1.462       .  S
C13         O867   1.276       .  A
C13         C114   1.465       .  S
C14         O869   1.276   1_545  A
C14          C90   1.465       .  S
N15          N16   1.324       .  A
N15          C19   1.346       .  A
N15         Cu23   2.080       .  S
N16          C17   1.344       .  A
N16         Cu22   2.069       .  S
C17          C18   1.379       .  A
C17          H20   1.082       .  S
C18          C19   1.381       .  A
C19         H165   1.082       .  S
H21         C163   1.082       .  S
Cu22         N25   2.069       .  S
Cu23         N33   2.080       .  S
Cu24         N26   2.064       .  S
Cu24         N32   2.064       .  S
N25          N26   1.322       .  A
N25          C29   1.346       .  A
N26          C27   1.342       .  A
C27          C28   1.381       .  A
C27          H30   1.082       .  S
C28          C76   1.464       .  S
C28          C29   1.382       .  A
C29          H31   1.082       .  S
N32          N33   1.321       .  A
N32          C36   1.343       .  A
N33          C34   1.346       .  A
C34          C35   1.389       .  A
C34         H181   1.081       .  S
C35         C139   1.484       .  S
C35          C36   1.384       .  A
C36          H38   1.082       .  S
H37         C178   1.081   1_554  S
N39          N40   1.324       .  A
N39          C43   1.346       .  A
N39         Cu47   2.080       .  S
N40          C41   1.344       .  A
N40         Cu46   2.069       .  S
C41          C42   1.379       .  A
C41          H44   1.082       .  S
C42          C43   1.381       .  A
C43         H189   1.082       .  S
H45         C187   1.083       .  S
Cu46         N49   2.069       .  S
Cu47         N57   2.080       .  S
Cu48         N50   2.064       .  S
Cu48         N56   2.064       .  S
N49          N50   1.322       .  A
N49          C53   1.346       .  A
N50          C51   1.342       .  A
C51          C52   1.381       .  A
C51          H54   1.082       .  S
C52          C75   1.464       .  S
C52          C53   1.382       .  A
C53          H55   1.082       .  S
N56          N57   1.321       .  A
N56          C60   1.343       .  A
N57          C58   1.346       .  A
C58          C59   1.389       .  A
C58         H205   1.081   1_554  S
C59         C136   1.484       .  S
C59          C60   1.384       .  A
C60          H62   1.082       .  S
H61         C202   1.081       .  S
O63          C73   1.277       .  A
O63         Cu71   2.011       .  S
O64          C74   1.278       .  A
O64         Cu71   2.013       .  S
O65          C75   1.278       .  A
O65         Cu71   2.014       .  S
O66          C76   1.276       .  A
O66         Cu71   1.994       .  S
O67          C76   1.278       .  A
O67         Cu72   2.014       .  S
O68          C75   1.276       .  A
O68         Cu72   1.994       .  S
O69          C74   1.277       .  A
O69         Cu72   2.011       .  S
O70          C73   1.278       .  A
O70         Cu72   2.013       .  S
Cu71        Cu72   2.378       .  S
C73          C80   1.466       .  S
C74         C104   1.466       .  S
N77          N78   1.324       .  A
N77          C81   1.348       .  A
N77         Cu85   2.089       .  S
N78          C79   1.344       .  A
N78         Cu84   2.070       .  S
C79          C80   1.379       .  A
C79          H82   1.082       .  S
C80          C81   1.384       .  A
C81          H83   1.082       .  S
Cu84         N87   2.069       .  S
Cu85         N95   2.089       .  S
Cu86         N88   2.065       .  S
Cu86         N94   2.065       .  S
N87          N88   1.321       .  A
N87          C91   1.346       .  A
N88          C89   1.342       .  A
C89          C90   1.381       .  A
C89          H92   1.082       .  S
C90          C91   1.383       .  A
C91          H93   1.082       .  S
N94          N95   1.321       .  A
N94          C98   1.343       .  A
N95          C96   1.348       .  A
C96          C97   1.390       .  A
C96          H99   1.081       .  S
C97         C129   1.485       .  S
C97          C98   1.384       .  A
C98         H100   1.082   1_545  S
N101        N102   1.324       .  A
N101        C105   1.348       .  A
N101       Cu109   2.089       .  S
N102        C103   1.344       .  A
N102       Cu108   2.070       .  S
C103        C104   1.379       .  A
C103        H106   1.082       .  S
C104        C105   1.384       .  A
C105        H107   1.083       .  S
Cu108       N111   2.069       .  S
Cu109       N119   2.089       .  S
Cu110       N112   2.065       .  S
Cu110       N118   2.065       .  S
N111        N112   1.321       .  A
N111        C115   1.346       .  A
N112        C113   1.342       .  A
C113        C114   1.381       .  A
C113        H116   1.082       .  S
C114        C115   1.383       .  A
C115        H117   1.082       .  S
N118        N119   1.321       .  A
N118        C122   1.343       .  A
N119        C120   1.348       .  A
C120        C121   1.390       .  A
C120        H123   1.081       .  S
C121        C126   1.485       .  S
C121        C122   1.384       .  A
C122        H124   1.082       .  S
C125        C126   1.406       .  A
C125        C706   1.400       .  A
C125        F132   1.357       .  S
C126        C415   1.409       .  A
C127        C414   1.409   1_545  A
C127        C704   1.400       .  A
C127        F134   1.357       .  S
C128        C129   1.406       .  A
C128        C703   1.400   1_455  A
C128        F133   1.358       .  S
C129        C418   1.409   1_545  A
C130        C701   1.400   1_455  A
C130        C417   1.409       .  A
C130        F131   1.357       .  S
C135        C136   1.409       .  A
C135        C284   1.399       .  A
C135        F142   1.357       .  S
C136        C137   1.407   1_554  A
C137        C282   1.399       .  A
C137        F144   1.357       .  S
C138        C139   1.409       .  A
C138        C281   1.399       .  A
C138        F143   1.357       .  S
C139        C140   1.407       .  A
C140        C279   1.399       .  A
C140        F141   1.357       .  S
O145        C155   1.277       .  A
O145       Cu729   2.009       .  S
O146        C156   1.277       .  A
O146       Cu297   2.007       .  S
O147       C1021   1.276   1_545  A
O147       Cu153   1.995   1_655  S
O148        C158   1.278       .  A
O149       C1022   1.276       .  A
O149       Cu154   1.995       .  S
O150        C157   1.278       .  A
O151        C156   1.277       .  A
O151       Cu730   2.009   1_455  S
O152        C155   1.277       .  A
O152       Cu298   2.007   1_546  S
Cu153       O721   2.009   1_455  S
Cu153       O290   2.007   1_546  S
Cu153      Cu874   2.378   1_446  S
Cu154       O727   2.009       .  S
Cu154       O296   2.007       .  S
Cu154      Cu873   2.378       .  S
C155        C162   1.462       .  S
C156        C186   1.462       .  S
C157       O1011   1.276       .  A
C157        C258   1.465       .  S
C158       O1013   1.276   1_545  A
C158        C234   1.465       .  S
N159        N160   1.324       .  A
N159        C163   1.346       .  A
N159       Cu167   2.080       .  S
N160        C161   1.344       .  A
N160       Cu166   2.069       .  S
C161        C162   1.379       .  A
C161        H164   1.082       .  S
C162        C163   1.381       .  A
Cu166       N169   2.069       .  S
Cu167       N177   2.080       .  S
Cu168       N170   2.064       .  S
Cu168       N176   2.064       .  S
N169        N170   1.322       .  A
N169        C173   1.346       .  A
N170        C171   1.342       .  A
C171        C172   1.381       .  A
C171        H174   1.082       .  S
C172        C220   1.464       .  S
C172        C173   1.382       .  A
C173        H175   1.082       .  S
N176        N177   1.321       .  A
N176        C180   1.343       .  A
N177        C178   1.346       .  A
C178        C179   1.389       .  A
C179        C283   1.484       .  S
C179        C180   1.384       .  A
C180        H182   1.082       .  S
N183        N184   1.324       .  A
N183        C187   1.346       .  A
N183       Cu191   2.080       .  S
N184        C185   1.344       .  A
N184       Cu190   2.069       .  S
C185        C186   1.379       .  A
C185        H188   1.082       .  S
C186        C187   1.381       .  A
Cu190       N193   2.069       .  S
Cu191       N201   2.080       .  S
Cu192       N194   2.064       .  S
Cu192       N200   2.064       .  S
N193        N194   1.322       .  A
N193        C197   1.346       .  A
N194        C195   1.342       .  A
C195        C196   1.381       .  A
C195        H198   1.082       .  S
C196        C219   1.464       .  S
C196        C197   1.382       .  A
C197        H199   1.082       .  S
N200        N201   1.321       .  A
N200        C204   1.343       .  A
N201        C202   1.346       .  A
C202        C203   1.389       .  A
C203        C280   1.484       .  S
C203        C204   1.384       .  A
C204        H206   1.082       .  S
O207        C217   1.277       .  A
O207       Cu215   2.011       .  S
O208        C218   1.278       .  A
O208       Cu215   2.013       .  S
O209        C219   1.278       .  A
O209       Cu215   2.014       .  S
O210        C220   1.276       .  A
O210       Cu215   1.994       .  S
O211        C220   1.278       .  A
O211       Cu216   2.014       .  S
O212        C219   1.276       .  A
O212       Cu216   1.994       .  S
O213        C218   1.277       .  A
O213       Cu216   2.011       .  S
O214        C217   1.278       .  A
O214       Cu216   2.013       .  S
Cu215      Cu216   2.378       .  S
C217        C224   1.466       .  S
C218        C248   1.466       .  S
N221        N222   1.324       .  A
N221        C225   1.348       .  A
N221       Cu229   2.089       .  S
N222        C223   1.344       .  A
N222       Cu228   2.070       .  S
C223        C224   1.379       .  A
C223        H226   1.082       .  S
C224        C225   1.384       .  A
C225        H227   1.082       .  S
Cu228       N231   2.069       .  S
Cu229       N239   2.089       .  S
Cu230       N232   2.065       .  S
Cu230       N238   2.065       .  S
N231        N232   1.321       .  A
N231        C235   1.346       .  A
N232        C233   1.342       .  A
C233        C234   1.381       .  A
C233        H236   1.082       .  S
C234        C235   1.383       .  A
C235        H237   1.082       .  S
N238        N239   1.321       .  A
N238        C242   1.343       .  A
N239        C240   1.348       .  A
C240        C241   1.390       .  A
C240        H243   1.081       .  S
C241        C273   1.485       .  S
C241        C242   1.384       .  A
C242        H244   1.082   1_545  S
N245        N246   1.324       .  A
N245        C249   1.348       .  A
N245       Cu253   2.089       .  S
N246        C247   1.344       .  A
N246       Cu252   2.070       .  S
C247        C248   1.379       .  A
C247        H250   1.081       .  S
C248        C249   1.384       .  A
C249        H251   1.083       .  S
Cu252       N255   2.069       .  S
Cu253       N263   2.089       .  S
Cu254       N256   2.065       .  S
Cu254       N262   2.065       .  S
N255        N256   1.321       .  A
N255        C259   1.346       .  A
N256        C257   1.342       .  A
C257        C258   1.381       .  A
C257        H260   1.082       .  S
C258        C259   1.383       .  A
C259        H261   1.082       .  S
N262        N263   1.321       .  A
N262        C266   1.343       .  A
N263        C264   1.348       .  A
C264        C265   1.390       .  A
C264        H267   1.081       .  S
C265        C270   1.485       .  S
C265        C266   1.384       .  A
C266        H268   1.082       .  S
C269        C270   1.406       .  A
C269        C850   1.400       .  A
C269        F276   1.358       .  S
C270        C559   1.409       .  A
C271        C558   1.409   1_545  A
C271        C848   1.400       .  A
C271        F278   1.357       .  S
C272        C847   1.400   1_455  A
C272        C273   1.406       .  A
C272        F277   1.358       .  S
C273        C562   1.409   1_545  A
C274        C845   1.400   1_455  A
C274        C561   1.409       .  A
C274        F275   1.357       .  S
C279        C280   1.409       .  A
C279        F286   1.357       .  S
C280        C281   1.407       .  A
C281        F288   1.357       .  S
C282        C283   1.409       .  A
C282        F287   1.357       .  S
C283        C284   1.407   1_556  A
C284        F285   1.357       .  S
O289        C299   1.277       .  A
O289       Cu873   2.009       .  S
O290        C300   1.277       .  A
O291        C589   1.276       .  A
O291       Cu297   1.995   1_655  S
O292        C302   1.278       .  A
O292       Cu441   2.015   1_554  S
O293        C590   1.276   1_565  A
O293       Cu298   1.995       .  S
O294        C301   1.278       .  A
O294       Cu442   2.015       .  S
O295        C300   1.277       .  A
O295       Cu874   2.009   1_455  S
O296        C299   1.277       .  A
Cu297       O865   2.009   1_455  S
Cu297       O436   2.015       .  S
Cu297      Cu730   2.378   1_455  S
Cu298       O438   2.015   1_554  S
Cu298       O871   2.009       .  S
Cu298      Cu729   2.378   1_564  S
C299        C306   1.462       .  S
C300        C330   1.462       .  S
C301        O579   1.276   1_565  A
C301        C402   1.465       .  S
C302        O581   1.276       .  A
C302        C378   1.465       .  S
N303        N304   1.324       .  A
N303        C307   1.346       .  A
N303       Cu311   2.080       .  S
N304        C305   1.344       .  A
N304       Cu310   2.069       .  S
C305        C306   1.379       .  A
C305        H308   1.082       .  S
C306        C307   1.381       .  A
C307        H453   1.082       .  S
H309        C451   1.082       .  S
Cu310       N313   2.069       .  S
Cu311       N321   2.080       .  S
Cu312       N314   2.064       .  S
Cu312       N320   2.064       .  S
N313        N314   1.322       .  A
N313        C317   1.346       .  A
N314        C315   1.342       .  A
C315        C316   1.381       .  A
C315        H318   1.082       .  S
C316        C364   1.464       .  S
C316        C317   1.382       .  A
C317        H319   1.082       .  S
N320        N321   1.321       .  A
N320        C324   1.343       .  A
N321        C322   1.346       .  A
C322        C323   1.389       .  A
C322        H469   1.081       .  S
C323        C427   1.484       .  S
C323        C324   1.384       .  A
C324        H326   1.082       .  S
H325        C466   1.081   1_554  S
N327        N328   1.324       .  A
N327        C331   1.346       .  A
N327       Cu335   2.080       .  S
N328        C329   1.344       .  A
N328       Cu334   2.069       .  S
C329        C330   1.379       .  A
C329        H332   1.082       .  S
C330        C331   1.381       .  A
C331        H477   1.083       .  S
H333        C475   1.083       .  S
Cu334       N337   2.069       .  S
Cu335       N345   2.080       .  S
Cu336       N338   2.064       .  S
Cu336       N344   2.064       .  S
N337        N338   1.321       .  A
N337        C341   1.346       .  A
N338        C339   1.342       .  A
C339        C340   1.381       .  A
C339        H342   1.082       .  S
C340        C363   1.464       .  S
C340        C341   1.382       .  A
C341        H343   1.082       .  S
N344        N345   1.321       .  A
N344        C348   1.343       .  A
N345        C346   1.346       .  A
C346        C347   1.389       .  A
C346        H493   1.081   1_554  S
C347        C424   1.484       .  S
C347        C348   1.384       .  A
C348        H350   1.082       .  S
H349        C490   1.081       .  S
O351        C361   1.277       .  A
O351       Cu359   2.011       .  S
O352        C362   1.278       .  A
O352       Cu359   2.013       .  S
O353        C363   1.278       .  A
O353       Cu359   2.014       .  S
O354        C364   1.276       .  A
O354       Cu359   1.994       .  S
O355        C364   1.278       .  A
O355       Cu360   2.014       .  S
O356        C363   1.276       .  A
O356       Cu360   1.994       .  S
O357        C362   1.277       .  A
O357       Cu360   2.011       .  S
O358        C361   1.278       .  A
O358       Cu360   2.013       .  S
Cu359      Cu360   2.378       .  S
C361        C368   1.466       .  S
C362        C392   1.466       .  S
N365        N366   1.324       .  A
N365        C369   1.348       .  A
N365       Cu373   2.089       .  S
N366        C367   1.344       .  A
N366       Cu372   2.070       .  S
C367        C368   1.379       .  A
C367        H370   1.082       .  S
C368        C369   1.384       .  A
C369        H371   1.082       .  S
Cu372       N375   2.069       .  S
Cu373       N383   2.089       .  S
Cu374       N376   2.065       .  S
Cu374       N382   2.065       .  S
N375        N376   1.321       .  A
N375        C379   1.346       .  A
N376        C377   1.342       .  A
C377        C378   1.381       .  A
C377        H380   1.082       .  S
C378        C379   1.383       .  A
C379        H381   1.082       .  S
N382        N383   1.321       .  A
N382        C386   1.343       .  A
N383        C384   1.348       .  A
C384        C385   1.390       .  A
C384        H387   1.081       .  S
C385        C417   1.485       .  S
C385        C386   1.384       .  A
C386        H388   1.082       .  S
N389        N390   1.324       .  A
N389        C393   1.348       .  A
N389       Cu397   2.089       .  S
N390        C391   1.344       .  A
N390       Cu396   2.070       .  S
C391        C392   1.379       .  A
C391        H394   1.082       .  S
C392        C393   1.384       .  A
C393        H395   1.082       .  S
Cu396       N399   2.069       .  S
Cu397       N407   2.089       .  S
Cu398       N400   2.065       .  S
Cu398       N406   2.065       .  S
N399        N400   1.321       .  A
N399        C403   1.346       .  A
N400        C401   1.342       .  A
C401        C402   1.381       .  A
C401        H404   1.082       .  S
C402        C403   1.383       .  A
C403        H405   1.082       .  S
N406        N407   1.321       .  A
N406        C410   1.343       .  A
N407        C408   1.348       .  A
C408        C409   1.390       .  A
C408        H411   1.081       .  S
C409        C414   1.485       .  S
C409        C410   1.383       .  A
C410        H412   1.082   1_565  S
C413        C414   1.406       .  A
C413        C994   1.400       .  A
C413        F420   1.358       .  S
C415        C992   1.400       .  A
C415        F422   1.357       .  S
C416        C991   1.400   1_455  A
C416        C417   1.406       .  A
C416        F421   1.358       .  S
C418        C989   1.400   1_455  A
C418        F419   1.357       .  S
C423        C424   1.409       .  A
C423        C572   1.399       .  A
C423        F430   1.357       .  S
C424        C425   1.407   1_554  A
C425        C570   1.399       .  A
C425        F432   1.357       .  S
C426        C569   1.399       .  A
C426        C427   1.409       .  A
C426        F431   1.357       .  S
C427        C428   1.407       .  A
C428        C567   1.399       .  A
C428        F429   1.357       .  S
O433        C443   1.277       .  A
O433      Cu1017   2.009       .  S
O434        C444   1.277       .  A
O435        C733   1.276       .  A
O435       Cu441   1.995   1_655  S
O436        C446   1.278       .  A
O437        C734   1.276   1_565  A
O437       Cu442   1.995       .  S
O438        C445   1.278       .  A
O439        C444   1.277       .  A
O439      Cu1018   2.009   1_455  S
O440        C443   1.277       .  A
Cu441      O1009   2.009   1_455  S
Cu441      Cu586   2.378   1_456  S
Cu442      O1015   2.009       .  S
Cu442      Cu585   2.378   1_565  S
C443        C450   1.462       .  S
C444        C474   1.462       .  S
C445        O723   1.276   1_565  A
C445        C546   1.465       .  S
C446        O725   1.276       .  A
C446        C522   1.465       .  S
N447        N448   1.324       .  A
N447        C451   1.346       .  A
N447       Cu455   2.080       .  S
N448        C449   1.344       .  A
N448       Cu454   2.069       .  S
C449        C450   1.379       .  A
C449        H452   1.082       .  S
C450        C451   1.381       .  A
Cu454       N457   2.069       .  S
Cu455       N465   2.080       .  S
Cu456       N458   2.064       .  S
Cu456       N464   2.064       .  S
N457        N458   1.322       .  A
N457        C461   1.346       .  A
N458        C459   1.342       .  A
C459        C460   1.381       .  A
C459        H462   1.082       .  S
C460        C508   1.464       .  S
C460        C461   1.382       .  A
C461        H463   1.082       .  S
N464        N465   1.321       .  A
N464        C468   1.343       .  A
N465        C466   1.346       .  A
C466        C467   1.389       .  A
C467        C571   1.484       .  S
C467        C468   1.384       .  A
C468        H470   1.082       .  S
N471        N472   1.324       .  A
N471        C475   1.346       .  A
N471       Cu479   2.080       .  S
N472        C473   1.344       .  A
N472       Cu478   2.069       .  S
C473        C474   1.379       .  A
C473        H476   1.082       .  S
C474        C475   1.381       .  A
Cu478       N481   2.069       .  S
Cu479       N489   2.080       .  S
Cu480       N482   2.064       .  S
Cu480       N488   2.064       .  S
N481        N482   1.321       .  A
N481        C485   1.346       .  A
N482        C483   1.342       .  A
C483        C484   1.381       .  A
C483        H486   1.082       .  S
C484        C507   1.464       .  S
C484        C485   1.382       .  A
C485        H487   1.082       .  S
N488        N489   1.321       .  A
N488        C492   1.343       .  A
N489        C490   1.346       .  A
C490        C491   1.389       .  A
C491        C568   1.484       .  S
C491        C492   1.384       .  A
C492        H494   1.082       .  S
O495        C505   1.277       .  A
O495       Cu503   2.011       .  S
O496        C506   1.278       .  A
O496       Cu503   2.013       .  S
O497        C507   1.278       .  A
O497       Cu503   2.014       .  S
O498        C508   1.276       .  A
O498       Cu503   1.994       .  S
O499        C508   1.278       .  A
O499       Cu504   2.014       .  S
O500        C507   1.276       .  A
O500       Cu504   1.994       .  S
O501        C506   1.277       .  A
O501       Cu504   2.011       .  S
O502        C505   1.278       .  A
O502       Cu504   2.013       .  S
Cu503      Cu504   2.378       .  S
C505        C512   1.466       .  S
C506        C536   1.466       .  S
N509        N510   1.324       .  A
N509        C513   1.348       .  A
N509       Cu517   2.089       .  S
N510        C511   1.344       .  A
N510       Cu516   2.070       .  S
C511        C512   1.379       .  A
C511        H514   1.082       .  S
C512        C513   1.384       .  A
C513        H515   1.082       .  S
Cu516       N519   2.069       .  S
Cu517       N527   2.089       .  S
Cu518       N520   2.065       .  S
Cu518       N526   2.065       .  S
N519        N520   1.321       .  A
N519        C523   1.346       .  A
N520        C521   1.342       .  A
C521        C522   1.381       .  A
C521        H524   1.082       .  S
C522        C523   1.383       .  A
C523        H525   1.082       .  S
N526        N527   1.321       .  A
N526        C530   1.343       .  A
N527        C528   1.348       .  A
C528        C529   1.390       .  A
C528        H531   1.081       .  S
C529        C561   1.485       .  S
C529        C530   1.384       .  A
C530        H532   1.082       .  S
N533        N534   1.324       .  A
N533        C537   1.348       .  A
N533       Cu541   2.089       .  S
N534        C535   1.344       .  A
N534       Cu540   2.070       .  S
C535        C536   1.379       .  A
C535        H538   1.082       .  S
C536        C537   1.384       .  A
C537        H539   1.083       .  S
Cu540       N543   2.069       .  S
Cu541       N551   2.089       .  S
Cu542       N544   2.065       .  S
Cu542       N550   2.065       .  S
N543        N544   1.321       .  A
N543        C547   1.346       .  A
N544        C545   1.342       .  A
C545        C546   1.381       .  A
C545        H548   1.082       .  S
C546        C547   1.383       .  A
C547        H549   1.082       .  S
N550        N551   1.321       .  A
N550        C554   1.343       .  A
N551        C552   1.348       .  A
C552        C553   1.390       .  A
C552        H555   1.081       .  S
C553        C558   1.485       .  S
C553        C554   1.384       .  A
C554        H556   1.082   1_565  S
C557        C558   1.406       .  A
C557       C1138   1.400       .  A
C557        F564   1.358       .  S
C559       C1136   1.400       .  A
C559        F566   1.357       .  S
C560       C1135   1.400   1_455  A
C560        C561   1.406       .  A
C560        F565   1.358       .  S
C562       C1133   1.400   1_455  A
C562        F563   1.357       .  S
C567        C568   1.409       .  A
C567        F574   1.357       .  S
C568        C569   1.407       .  A
C569        F576   1.357       .  S
C570        C571   1.409       .  A
C570        F575   1.357       .  S
C571        C572   1.407   1_556  A
C572        F573   1.357       .  S
O577        C587   1.277       .  A
O578        C588   1.277       .  A
O578      Cu1017   2.007   1_554  S
O579       Cu585   1.995       .  S
O580        C590   1.278       .  A
O580       Cu729   2.015   1_554  S
O581       Cu586   1.995   1_455  S
O582        C589   1.278       .  A
O582       Cu730   2.015       .  S
O583        C588   1.277       .  A
O584        C587   1.277       .  A
O584      Cu1018   2.007   1_545  S
Cu585      O1010   2.007   1_545  S
Cu585       O724   2.015       .  S
Cu586       O726   2.015   1_554  S
Cu586      O1016   2.007   1_554  S
C587        C594   1.462       .  S
C588        C618   1.462       .  S
C589        C690   1.465       .  S
C590        C666   1.465       .  S
N591        N592   1.324       .  A
N591        C595   1.346       .  A
N591       Cu599   2.080       .  S
N592        C593   1.344       .  A
N592       Cu598   2.069       .  S
C593        C594   1.379       .  A
C593        H596   1.082       .  S
C594        C595   1.381       .  A
C595        H741   1.082       .  S
H597        C739   1.082       .  S
Cu598       N601   2.069       .  S
Cu599       N609   2.080       .  S
Cu600       N602   2.064       .  S
Cu600       N608   2.064       .  S
N601        N602   1.322       .  A
N601        C605   1.346       .  A
N602        C603   1.342       .  A
C603        C604   1.381       .  A
C603        H606   1.082       .  S
C604        C652   1.464       .  S
C604        C605   1.382       .  A
C605        H607   1.082       .  S
N608        N609   1.321       .  A
N608        C612   1.343       .  A
N609        C610   1.346       .  A
C610        C611   1.389       .  A
C610        H757   1.081       .  S
C611        C715   1.484       .  S
C611        C612   1.384       .  A
C612        H614   1.082       .  S
H613        C754   1.081   1_554  S
N615        N616   1.324       .  A
N615        C619   1.346       .  A
N615       Cu623   2.080       .  S
N616        C617   1.344       .  A
N616       Cu622   2.069       .  S
C617        C618   1.379       .  A
C617        H620   1.082       .  S
C618        C619   1.381       .  A
C619        H765   1.082       .  S
H621        C763   1.082       .  S
Cu622       N625   2.069       .  S
Cu623       N633   2.080       .  S
Cu624       N626   2.064       .  S
Cu624       N632   2.064       .  S
N625        N626   1.322       .  A
N625        C629   1.346       .  A
N626        C627   1.342       .  A
C627        C628   1.381       .  A
C627        H630   1.082       .  S
C628        C651   1.464       .  S
C628        C629   1.382       .  A
C629        H631   1.082       .  S
N632        N633   1.321       .  A
N632        C636   1.343       .  A
N633        C634   1.346       .  A
C634        C635   1.389       .  A
C634        H781   1.081   1_554  S
C635        C712   1.484       .  S
C635        C636   1.384       .  A
C636        H638   1.082       .  S
H637        C778   1.081       .  S
O639        C649   1.277       .  A
O639       Cu647   2.011       .  S
O640        C650   1.278       .  A
O640       Cu647   2.013       .  S
O641        C651   1.278       .  A
O641       Cu647   2.014       .  S
O642        C652   1.276       .  A
O642       Cu647   1.994       .  S
O643        C652   1.278       .  A
O643       Cu648   2.014       .  S
O644        C651   1.276       .  A
O644       Cu648   1.994       .  S
O645        C650   1.277       .  A
O645       Cu648   2.011       .  S
O646        C649   1.278       .  A
O646       Cu648   2.013       .  S
Cu647      Cu648   2.378       .  S
C649        C656   1.466       .  S
C650        C680   1.466       .  S
N653        N654   1.324       .  A
N653        C657   1.348       .  A
N653       Cu661   2.089       .  S
N654        C655   1.344       .  A
N654       Cu660   2.070       .  S
C655        C656   1.379       .  A
C655        H658   1.082       .  S
C656        C657   1.384       .  A
C657        H659   1.082       .  S
Cu660       N663   2.069       .  S
Cu661       N671   2.089       .  S
Cu662       N664   2.065       .  S
Cu662       N670   2.065       .  S
N663        N664   1.321       .  A
N663        C667   1.346       .  A
N664        C665   1.342       .  A
C665        C666   1.381       .  A
C665        H668   1.082       .  S
C666        C667   1.383       .  A
C667        H669   1.082       .  S
N670        N671   1.321       .  A
N670        C674   1.343       .  A
N671        C672   1.348       .  A
C672        C673   1.390       .  A
C672        H675   1.081       .  S
C673        C705   1.485       .  S
C673        C674   1.384       .  A
C674        H676   1.082   1_545  S
N677        N678   1.324       .  A
N677        C681   1.348       .  A
N677       Cu685   2.089       .  S
N678        C679   1.344       .  A
N678       Cu684   2.070       .  S
C679        C680   1.379       .  A
C679        H682   1.082       .  S
C680        C681   1.384       .  A
C681        H683   1.082       .  S
Cu684       N687   2.069       .  S
Cu685       N695   2.089       .  S
Cu686       N688   2.065       .  S
Cu686       N694   2.065       .  S
N687        N688   1.321       .  A
N687        C691   1.346       .  A
N688        C689   1.342       .  A
C689        C690   1.381       .  A
C689        H692   1.082       .  S
C690        C691   1.383       .  A
C691        H693   1.082       .  S
N694        N695   1.322       .  A
N694        C698   1.343       .  A
N695        C696   1.348       .  A
C696        C697   1.390       .  A
C696        H699   1.081       .  S
C697        C702   1.485       .  S
C697        C698   1.384       .  A
C698        H700   1.082       .  S
C701        C702   1.406       .  A
C701        F708   1.358       .  S
C702        C991   1.409       .  A
C703        C990   1.409   1_545  A
C703        F710   1.357       .  S
C704        C705   1.406       .  A
C704        F709   1.358       .  S
C705        C994   1.409   1_545  A
C706        C993   1.409       .  A
C706        F707   1.357       .  S
C711        C712   1.409       .  A
C711        C860   1.399       .  A
C711        F718   1.357       .  S
C712        C713   1.407   1_554  A
C713        C858   1.399       .  A
C713        F720   1.357       .  S
C714        C857   1.399       .  A
C714        C715   1.409       .  A
C714        F719   1.357       .  S
C715        C716   1.407       .  A
C716        C855   1.399       .  A
C716        F717   1.357       .  S
O721        C731   1.277       .  A
O722        C732   1.277       .  A
O722       Cu873   2.007       .  S
O723       Cu729   1.995       .  S
O724        C734   1.278       .  A
O725       Cu730   1.995   1_455  S
O726        C733   1.278       .  A
O727        C732   1.277       .  A
O728        C731   1.277       .  A
O728       Cu874   2.007   1_546  S
Cu729       O866   2.007   1_546  S
Cu730       O872   2.007       .  S
C731        C738   1.462       .  S
C732        C762   1.462       .  S
C733        C834   1.465       .  S
C734        C810   1.465       .  S
N735        N736   1.324       .  A
N735        C739   1.346       .  A
N735       Cu743   2.080       .  S
N736        C737   1.344       .  A
N736       Cu742   2.069       .  S
C737        C738   1.379       .  A
C737        H740   1.082       .  S
C738        C739   1.381       .  A
Cu742       N745   2.069       .  S
Cu743       N753   2.080       .  S
Cu744       N746   2.064       .  S
Cu744       N752   2.064       .  S
N745        N746   1.322       .  A
N745        C749   1.346       .  A
N746        C747   1.342       .  A
C747        C748   1.381       .  A
C747        H750   1.082       .  S
C748        C796   1.464       .  S
C748        C749   1.382       .  A
C749        H751   1.082       .  S
N752        N753   1.321       .  A
N752        C756   1.343       .  A
N753        C754   1.346       .  A
C754        C755   1.389       .  A
C755        C859   1.484       .  S
C755        C756   1.384       .  A
C756        H758   1.082       .  S
N759        N760   1.324       .  A
N759        C763   1.346       .  A
N759       Cu767   2.080       .  S
N760        C761   1.344       .  A
N760       Cu766   2.069       .  S
C761        C762   1.379       .  A
C761        H764   1.082       .  S
C762        C763   1.381       .  A
Cu766       N769   2.069       .  S
Cu767       N777   2.080       .  S
Cu768       N770   2.064       .  S
Cu768       N776   2.064       .  S
N769        N770   1.322       .  A
N769        C773   1.346       .  A
N770        C771   1.342       .  A
C771        C772   1.381       .  A
C771        H774   1.082       .  S
C772        C795   1.464       .  S
C772        C773   1.382       .  A
C773        H775   1.082       .  S
N776        N777   1.321       .  A
N776        C780   1.343       .  A
N777        C778   1.346       .  A
C778        C779   1.389       .  A
C779        C856   1.484       .  S
C779        C780   1.384       .  A
C780        H782   1.082       .  S
O783        C793   1.277       .  A
O783       Cu791   2.011       .  S
O784        C794   1.278       .  A
O784       Cu791   2.013       .  S
O785        C795   1.278       .  A
O785       Cu791   2.014       .  S
O786        C796   1.276       .  A
O786       Cu791   1.994       .  S
O787        C796   1.278       .  A
O787       Cu792   2.014       .  S
O788        C795   1.276       .  A
O788       Cu792   1.994       .  S
O789        C794   1.277       .  A
O789       Cu792   2.011       .  S
O790        C793   1.278       .  A
O790       Cu792   2.013       .  S
Cu791      Cu792   2.378       .  S
C793        C800   1.466       .  S
C794        C824   1.466       .  S
N797        N798   1.324       .  A
N797        C801   1.348       .  A
N797       Cu805   2.089       .  S
N798        C799   1.344       .  A
N798       Cu804   2.070       .  S
C799        C800   1.379       .  A
C799        H802   1.082       .  S
C800        C801   1.384       .  A
C801        H803   1.082       .  S
Cu804       N807   2.069       .  S
Cu805       N815   2.089       .  S
Cu806       N808   2.065       .  S
Cu806       N814   2.065       .  S
N807        N808   1.321       .  A
N807        C811   1.346       .  A
N808        C809   1.342       .  A
C809        C810   1.381       .  A
C809        H812   1.082       .  S
C810        C811   1.383       .  A
C811        H813   1.082       .  S
N814        N815   1.321       .  A
N814        C818   1.343       .  A
N815        C816   1.348       .  A
C816        C817   1.390       .  A
C816        H819   1.081       .  S
C817        C849   1.485       .  S
C817        C818   1.384       .  A
C818        H820   1.082   1_545  S
N821        N822   1.324       .  A
N821        C825   1.348       .  A
N821       Cu829   2.089       .  S
N822        C823   1.344       .  A
N822       Cu828   2.070       .  S
C823        C824   1.379       .  A
C823        H826   1.082       .  S
C824        C825   1.384       .  A
C825        H827   1.083       .  S
Cu828       N831   2.069       .  S
Cu829       N839   2.089       .  S
Cu830       N832   2.065       .  S
Cu830       N838   2.065       .  S
N831        N832   1.321       .  A
N831        C835   1.346       .  A
N832        C833   1.342       .  A
C833        C834   1.381       .  A
C833        H836   1.082       .  S
C834        C835   1.383       .  A
C835        H837   1.082       .  S
N838        N839   1.321       .  A
N838        C842   1.343       .  A
N839        C840   1.348       .  A
C840        C841   1.390       .  A
C840        H843   1.081       .  S
C841        C846   1.485       .  S
C841        C842   1.384       .  A
C842        H844   1.082       .  S
C845        C846   1.406       .  A
C845        F852   1.357       .  S
C846       C1135   1.409       .  A
C847       C1134   1.409   1_545  A
C847        F854   1.357       .  S
C848        C849   1.406       .  A
C848        F853   1.357       .  S
C849       C1138   1.409   1_545  A
C850       C1137   1.409       .  A
C850        F851   1.357       .  S
C855        C856   1.409       .  A
C855        F862   1.357       .  S
C856        C857   1.407       .  A
C857        F864   1.357       .  S
C858        C859   1.409       .  A
C858        F863   1.357       .  S
C859        C860   1.407   1_556  A
C860        F861   1.357       .  S
O865        C875   1.277       .  A
O866        C876   1.277       .  A
O867       Cu873   1.995       .  S
O868        C878   1.278       .  A
O868      Cu1017   2.015   1_554  S
O869       Cu874   1.995   1_455  S
O870        C877   1.278       .  A
O870      Cu1018   2.015       .  S
O871        C876   1.277       .  A
O872        C875   1.277       .  A
Cu873      O1012   2.015       .  S
Cu874      O1014   2.015   1_554  S
C875        C882   1.462       .  S
C876        C906   1.462       .  S
C877        C978   1.465       .  S
C878        C954   1.465       .  S
N879        N880   1.324       .  A
N879        C883   1.346       .  A
N879       Cu887   2.080       .  S
N880        C881   1.344       .  A
N880       Cu886   2.069       .  S
C881        C882   1.379       .  A
C881        H884   1.082       .  S
C882        C883   1.381       .  A
C883       H1029   1.082       .  S
H885       C1027   1.082       .  S
Cu886       N889   2.069       .  S
Cu887       N897   2.080       .  S
Cu888       N890   2.064       .  S
Cu888       N896   2.064       .  S
N889        N890   1.322       .  A
N889        C893   1.346       .  A
N890        C891   1.342       .  A
C891        C892   1.381       .  A
C891        H894   1.082       .  S
C892        C940   1.464       .  S
C892        C893   1.382       .  A
C893        H895   1.082       .  S
N896        N897   1.321       .  A
N896        C900   1.343       .  A
N897        C898   1.346       .  A
C898        C899   1.389       .  A
C898       H1045   1.081       .  S
C899       C1003   1.484       .  S
C899        C900   1.384       .  A
C900        H902   1.082       .  S
H901       C1042   1.081   1_554  S
N903        N904   1.324       .  A
N903        C907   1.346       .  A
N903       Cu911   2.080       .  S
N904        C905   1.344       .  A
N904       Cu910   2.069       .  S
C905        C906   1.379       .  A
C905        H908   1.082       .  S
C906        C907   1.381       .  A
C907       H1053   1.082       .  S
H909       C1051   1.082       .  S
Cu910       N913   2.069       .  S
Cu911       N921   2.080       .  S
Cu912       N914   2.064       .  S
Cu912       N920   2.064       .  S
N913        N914   1.322       .  A
N913        C917   1.346       .  A
N914        C915   1.342       .  A
C915        C916   1.381       .  A
C915        H918   1.082       .  S
C916        C939   1.464       .  S
C916        C917   1.382       .  A
C917        H919   1.082       .  S
N920        N921   1.321       .  A
N920        C924   1.343       .  A
N921        C922   1.346       .  A
C922        C923   1.389       .  A
C922       H1069   1.081   1_554  S
C923       C1000   1.484       .  S
C923        C924   1.384       .  A
C924        H926   1.082       .  S
H925       C1066   1.081       .  S
O927        C937   1.277       .  A
O927       Cu935   2.011       .  S
O928        C938   1.278       .  A
O928       Cu935   2.013       .  S
O929        C939   1.278       .  A
O929       Cu935   2.014       .  S
O930        C940   1.276       .  A
O930       Cu935   1.994       .  S
O931        C940   1.278       .  A
O931       Cu936   2.014       .  S
O932        C939   1.276       .  A
O932       Cu936   1.994       .  S
O933        C938   1.277       .  A
O933       Cu936   2.011       .  S
O934        C937   1.278       .  A
O934       Cu936   2.013       .  S
Cu935      Cu936   2.378       .  S
C937        C944   1.466       .  S
C938        C968   1.466       .  S
N941        N942   1.324       .  A
N941        C945   1.348       .  A
N941       Cu949   2.089       .  S
N942        C943   1.344       .  A
N942       Cu948   2.070       .  S
C943        C944   1.379       .  A
C943        H946   1.082       .  S
C944        C945   1.384       .  A
C945        H947   1.082       .  S
Cu948       N951   2.069       .  S
Cu949       N959   2.089       .  S
Cu950       N952   2.065       .  S
Cu950       N958   2.065       .  S
N951        N952   1.321       .  A
N951        C955   1.346       .  A
N952        C953   1.342       .  A
C953        C954   1.381       .  A
C953        H956   1.082       .  S
C954        C955   1.383       .  A
C955        H957   1.082       .  S
N958        N959   1.321       .  A
N958        C962   1.343       .  A
N959        C960   1.348       .  A
C960        C961   1.390       .  A
C960        H963   1.081       .  S
C961        C993   1.485       .  S
C961        C962   1.384       .  A
C962        H964   1.082       .  S
N965        N966   1.324       .  A
N965        C969   1.348       .  A
N965       Cu973   2.089       .  S
N966        C967   1.344       .  A
N966       Cu972   2.070       .  S
C967        C968   1.379       .  A
C967        H970   1.082       .  S
C968        C969   1.384       .  A
C969        H971   1.082       .  S
Cu972       N975   2.069       .  S
Cu973       N983   2.089       .  S
Cu974       N976   2.065       .  S
Cu974       N982   2.065       .  S
N975        N976   1.321       .  A
N975        C979   1.346       .  A
N976        C977   1.342       .  A
C977        C978   1.381       .  A
C977        H980   1.082       .  S
C978        C979   1.383       .  A
C979        H981   1.082       .  S
N982        N983   1.321       .  A
N982        C986   1.343       .  A
N983        C984   1.348       .  A
C984        C985   1.390       .  A
C984        H987   1.081       .  S
C985        C990   1.485       .  S
C985        C986   1.383       .  A
C986        H988   1.082   1_565  S
C989        C990   1.406       .  A
C989        F996   1.358       .  S
C991        F998   1.357       .  S
C992        C993   1.406       .  A
C992        F997   1.358       .  S
C994        F995   1.357       .  S
C999       C1000   1.409       .  A
C999       C1148   1.399       .  A
C999       F1006   1.357       .  S
C1000      C1001   1.407   1_554  A
C1001      C1146   1.399       .  A
C1001      F1008   1.357       .  S
C1002      C1145   1.399       .  A
C1002      C1003   1.409       .  A
C1002      F1007   1.357       .  S
C1003      C1004   1.407       .  A
C1004      C1143   1.399       .  A
C1004      F1005   1.357       .  S
O1009      C1019   1.277       .  A
O1010      C1020   1.277       .  A
O1011     Cu1017   1.995       .  S
O1012      C1022   1.278       .  A
O1013     Cu1018   1.995   1_455  S
O1014      C1021   1.278       .  A
O1015      C1020   1.277       .  A
O1016      C1019   1.277       .  A
C1019      C1026   1.462       .  S
C1020      C1050   1.462       .  S
C1021      C1122   1.465       .  S
C1022      C1098   1.465       .  S
N1023      N1024   1.324       .  A
N1023      C1027   1.346       .  A
N1023     Cu1031   2.080       .  S
N1024      C1025   1.344       .  A
N1024     Cu1030   2.069       .  S
C1025      C1026   1.379       .  A
C1025      H1028   1.082       .  S
C1026      C1027   1.381       .  A
Cu1030     N1033   2.069       .  S
Cu1031     N1041   2.080       .  S
Cu1032     N1034   2.064       .  S
Cu1032     N1040   2.064       .  S
N1033      N1034   1.322       .  A
N1033      C1037   1.346       .  A
N1034      C1035   1.342       .  A
C1035      C1036   1.381       .  A
C1035      H1038   1.082       .  S
C1036      C1084   1.464       .  S
C1036      C1037   1.382       .  A
C1037      H1039   1.082       .  S
N1040      N1041   1.321       .  A
N1040      C1044   1.343       .  A
N1041      C1042   1.346       .  A
C1042      C1043   1.389       .  A
C1043      C1147   1.484       .  S
C1043      C1044   1.384       .  A
C1044      H1046   1.082       .  S
N1047      N1048   1.324       .  A
N1047      C1051   1.346       .  A
N1047     Cu1055   2.080       .  S
N1048      C1049   1.344       .  A
N1048     Cu1054   2.069       .  S
C1049      C1050   1.379       .  A
C1049      H1052   1.082       .  S
C1050      C1051   1.381       .  A
Cu1054     N1057   2.069       .  S
Cu1055     N1065   2.080       .  S
Cu1056     N1058   2.064       .  S
Cu1056     N1064   2.064       .  S
N1057      N1058   1.321       .  A
N1057      C1061   1.346       .  A
N1058      C1059   1.342       .  A
C1059      C1060   1.381       .  A
C1059      H1062   1.082       .  S
C1060      C1083   1.464       .  S
C1060      C1061   1.382       .  A
C1061      H1063   1.082       .  S
N1064      N1065   1.321       .  A
N1064      C1068   1.343       .  A
N1065      C1066   1.346       .  A
C1066      C1067   1.389       .  A
C1067      C1144   1.484       .  S
C1067      C1068   1.384       .  A
C1068      H1070   1.082       .  S
O1071      C1081   1.277       .  A
O1071     Cu1079   2.011       .  S
O1072      C1082   1.278       .  A
O1072     Cu1079   2.013       .  S
O1073      C1083   1.278       .  A
O1073     Cu1079   2.014       .  S
O1074      C1084   1.276       .  A
O1074     Cu1079   1.994       .  S
O1075      C1084   1.278       .  A
O1075     Cu1080   2.014       .  S
O1076      C1083   1.276       .  A
O1076     Cu1080   1.994       .  S
O1077      C1082   1.277       .  A
O1077     Cu1080   2.011       .  S
O1078      C1081   1.278       .  A
O1078     Cu1080   2.013       .  S
Cu1079    Cu1080   2.378       .  S
C1081      C1088   1.466       .  S
C1082      C1112   1.466       .  S
N1085      N1086   1.324       .  A
N1085      C1089   1.348       .  A
N1085     Cu1093   2.089       .  S
N1086      C1087   1.344       .  A
N1086     Cu1092   2.070       .  S
C1087      C1088   1.379       .  A
C1087      H1090   1.082       .  S
C1088      C1089   1.384       .  A
C1089      H1091   1.082       .  S
Cu1092     N1095   2.069       .  S
Cu1093     N1103   2.089       .  S
Cu1094     N1096   2.065       .  S
Cu1094     N1102   2.065       .  S
N1095      N1096   1.321       .  A
N1095      C1099   1.346       .  A
N1096      C1097   1.342       .  A
C1097      C1098   1.381       .  A
C1097      H1100   1.082       .  S
C1098      C1099   1.383       .  A
C1099      H1101   1.082       .  S
N1102      N1103   1.321       .  A
N1102      C1106   1.343       .  A
N1103      C1104   1.348       .  A
C1104      C1105   1.390       .  A
C1104      H1107   1.081       .  S
C1105      C1137   1.485       .  S
C1105      C1106   1.384       .  A
C1106      H1108   1.082       .  S
N1109      N1110   1.324       .  A
N1109      C1113   1.348       .  A
N1109     Cu1117   2.089       .  S
N1110      C1111   1.344       .  A
N1110     Cu1116   2.070       .  S
C1111      C1112   1.379       .  A
C1111      H1114   1.081       .  S
C1112      C1113   1.384       .  A
C1113      H1115   1.083       .  S
Cu1116     N1119   2.069       .  S
Cu1117     N1127   2.089       .  S
Cu1118     N1120   2.065       .  S
Cu1118     N1126   2.065       .  S
N1119      N1120   1.321       .  A
N1119      C1123   1.346       .  A
N1120      C1121   1.342       .  A
C1121      C1122   1.381       .  A
C1121      H1124   1.082       .  S
C1122      C1123   1.383       .  A
C1123      H1125   1.082       .  S
N1126      N1127   1.321       .  A
N1126      C1130   1.343       .  A
N1127      C1128   1.348       .  A
C1128      C1129   1.390       .  A
C1128      H1131   1.081       .  S
C1129      C1134   1.485       .  S
C1129      C1130   1.384       .  A
C1130      H1132   1.082   1_565  S
C1133      C1134   1.406       .  A
C1133      F1140   1.358       .  S
C1135      F1142   1.357       .  S
C1136      C1137   1.406       .  A
C1136      F1141   1.358       .  S
C1138      F1139   1.357       .  S
C1143      C1144   1.409       .  A
C1143      F1150   1.357       .  S
C1144      C1145   1.407       .  A
C1145      F1152   1.357       .  S
C1146      C1147   1.409       .  A
C1146      F1151   1.357       .  S
C1147      C1148   1.407   1_556  A
C1148      F1149   1.357       .  S
