geometry optimzed in LAMMPS
_audit_creation_date              2020-11-30 
_audit_creation_method            'lammps2cif' 
_symmetry_space_group_name_H-M    'P1' 
_symmetry_Int_Tables_number       1 
_symmetry_cell_setting            triclinic 
loop_ 
_symmetry_equiv_pos_as_xyz 
  x,y,z 
_cell_length_a                    27.76635492 
_cell_length_b                    29.815163457364942 
_cell_length_c                    33.9792216803386 
_cell_angle_alpha                 92.36274925802597 
_cell_angle_beta                  88.85702205156035 
_cell_angle_gamma                 90.25182046332873 
loop_ 
_atom_site_label 
_atom_site_type_symbol 
_atom_site_fract_x 
_atom_site_fract_y 
_atom_site_fract_z 
_atom_site_charge 
O1          O  0.31085648  0.23792368  0.46668186    -0.70300
O2          O  0.18643354  0.19530762  0.47806846    -0.70500
O3          O  0.22525373  0.25871330  0.43583708    -0.70400
O4          O  0.26928981  0.17802661  0.50991802    -0.70400
O5          O  0.31095450  0.24306194  0.06515855    -0.70400
O6          O  0.25148739  0.32065586  0.99629521    -0.70400
O7          O  0.21957658  0.26216273  0.04829692    -0.70300
O8          O  0.34297776  0.30081447  0.01304902    -0.70500
V9          V  0.24780315  0.21836727  0.47377669     1.35200
V10         V  0.28112762  0.28094907  0.02987494     1.35200
C11         C  0.36512947  0.27837636  0.98594690     0.78900
C12         C  0.15474800  0.21639807  0.49795557     0.79000
C13         C  0.24689922  0.30945738  0.96032068     0.78900
C14         C  0.26850177  0.18880097  0.54625313     0.78800
O15         O  0.33224916  0.44098435  0.24463774    -0.70300
O16         O  0.20341722  0.45246159  0.27708793    -0.70500
O17         O  0.24690964  0.42679131  0.20966213    -0.70400
O18         O  0.28793130  0.46974455  0.31164141    -0.70400
O19         O  0.29103801  0.03182181  0.28245687    -0.70400
O20         O  0.21754653  0.99122948  0.19530103    -0.70400
O21         O  0.19543397  0.02111501  0.26815035    -0.70300
O22         O  0.31315638  0.99716340  0.20698319    -0.70500
V23         V  0.26767457  0.44866343  0.26049674     1.35200
V24         V  0.25507106  0.00952311  0.23876059     1.35200
C25         C  0.34978004  0.46558798  0.21875347     0.78900
C26         C  0.18227896  0.48973496  0.28158695     0.79000
C27         C  0.23039773  0.45457623  0.18594585     0.78900
C28         C  0.30077677  0.51049606  0.31646698     0.78800
O29         O  0.45629563  0.31522635  0.26013741    -0.70300
O30         O  0.47663383  0.20725098  0.20240479    -0.70500
O31         O  0.43470018  0.22673092  0.27298511    -0.70400
O32         O  0.50076942  0.29441974  0.19247139    -0.70400
O33         O  0.06651531  0.28369509  0.22323503    -0.70400
O34         O  0.00459630  0.21930806  0.30512496    -0.70400
O35         O  0.04161972  0.19377425  0.23409877    -0.70300
O36         O  0.02484435  0.30951297  0.29360332    -0.70500
V37         V  0.46851386  0.26048069  0.23275336     1.35200
V38         V  0.03355204  0.25212718  0.26325656     1.35200
C39         C  0.48424432  0.33028708  0.28623543     0.78900
C40         C  0.50892417  0.17901434  0.20918675     0.79000
C41         C  0.45722990  0.20950381  0.30133237     0.78900
C42         C  0.54593835  0.30045241  0.19480974     0.78800
N43         N  0.13799554  0.17252050  0.02442586    -0.02000
C44         C  0.15732308  0.20667008  0.04678524     0.00600
C45         C  0.17214436  0.18993994  0.08227339    -0.22300
C46         C  0.17589497  0.14445279  0.07614660    -0.22500
C47         C  0.15724313  0.13572708  0.03958822     0.00500
H48         H  0.19131088  0.20846991  0.10521466     0.14300
H49         H  0.19335066  0.12109636  0.09476990     0.14300
N50         N  0.19705002  0.37314126  0.94616633    -0.02000
C51         C  0.23002469  0.34250580  0.93387826     0.00600
C52         C  0.26039402  0.35985070  0.90557375    -0.22300
C53         C  0.24707761  0.40387644  0.90195597    -0.22500
C54         C  0.20820532  0.41111159  0.92736508     0.00500
H55         H  0.29287370  0.34448009  0.89335863     0.14300
H56         H  0.26687992  0.42898688  0.88606212     0.14300
N57         N  0.12536305  0.51713077  0.33564814    -0.02000
C58         C  0.13400918  0.48955538  0.30306509     0.00600
C59         C  0.12165422  0.44602051  0.31351420    -0.22300
C60         C  0.12847061  0.44546244  0.35330408    -0.22500
C61         C  0.13673392  0.48953749  0.36507403     0.00500
H62         H  0.12308413  0.41601478  0.29442691     0.14300
H63         H  0.12936623  0.41628489  0.37121358     0.14300
O64         O  0.10817180  0.49102126  0.43104335    -0.70300
O65         O  0.13184059  0.98546474  0.04079295    -0.70500
O66         O  0.08312117  0.06121953  0.47532221    -0.70400
O67         O  0.15177536  0.46346681  0.95260290    -0.70400
O68         O  0.21069584  0.47295856  0.47204338    -0.70400
O69         O  0.19538162  0.07803892  0.00095761    -0.70400
O70         O  0.22168291  0.49893427  0.03277638    -0.70300
O71         O  0.16867492  0.02125585  0.41600744    -0.70500
V72         V  0.11542742  0.50444364  0.48544613     1.35200
V73         V  0.20844967  0.53242424  0.98799948     1.35200
C74         C  0.14017301  0.50338747  0.40693985     0.78900
C75         C  0.18873087  0.47619805  0.04871166     0.79000
C76         C  0.15814818  0.09244028  0.01939334     0.78900
C77         C  0.19497402  0.45514502  0.94382603     0.78800
N78         N  0.18605359  0.46288327  0.12233445    -0.02000
C79         C  0.21660192  0.44041677  0.14558193     0.00600
C80         C  0.24798084  0.41424572  0.12252507    -0.22300
C81         C  0.23793581  0.42156413  0.08397699    -0.22500
C82         C  0.19998826  0.45122856  0.08434914     0.00500
H83         H  0.27864543  0.39594396  0.13257692     0.14300
H84         H  0.25850898  0.40926353  0.05839317     0.14300
N85         N  0.36830727  0.13903427  0.06096719    -0.02000
C86         C  0.33992249  0.17102319  0.07816243     0.00600
C87         C  0.31384847  0.15408086  0.10924186    -0.22300
C88         C  0.32467436  0.10921783  0.10945009    -0.22500
C89         C  0.35756556  0.10092572  0.07892017     0.00500
H90         H  0.28358592  0.16999536  0.12469956     0.14300
H91         H  0.30479142  0.08432822  0.12554694     0.14300
N92         N  0.95234775  0.16447628  0.36822015    -0.02000
C93         C  0.93409466  0.19228874  0.34011977     0.00600
C94         C  0.89791451  0.21865833  0.35689563    -0.22300
C95         C  0.38944502  0.20577287  0.39015523    -0.22500
C96         C  0.93039582  0.17940051  0.40332615     0.00500
H97         H  0.87894724  0.24541863  0.34323084     0.14300
H98         H  0.36525527  0.22200009  0.41101946     0.14300
O99         O  0.42998405  0.19784362  0.46784200    -0.70300
O100        O  0.99569311  0.18485806  0.08032247    -0.70500
O101        O  0.01391651  0.19446550  0.51850817    -0.70400
O102        O  0.42428511  0.18603234  0.03034524    -0.70400
O103        O  0.38507305  0.10931240  0.51472403    -0.70400
O104        O  0.06756374  0.13432012  0.00319566    -0.70400
O105        O  0.51591909  0.11484873  0.06399031    -0.70300
O106        O  0.94936510  0.12952945  0.45613112    -0.70500
V107        V  0.94763296  0.18573402  0.52735943     1.35200
V108        V  0.00031209  0.12623949  0.01235242     1.35200
C109        C  0.94000565  0.16862915  0.44571640     0.78900
C110        C  0.00249306  0.14528618  0.09167748     0.79000
C111        C  0.08735332  0.17096363  0.01451144     0.78900
C112        C  0.40949239  0.14659156  0.03523865     0.78800
N113        N  0.02180313  0.11688720  0.15933350    -0.02000
C114        C  0.99966961  0.13206426  0.19409045     0.00600
C115        C  0.95020682  0.12677974  0.18787357    -0.22300
C116        C  0.94503953  0.13435592  0.14849062    -0.22500
C117        C  0.99114237  0.13345805  0.13278697     0.00500
H118        H  0.92185499  0.13454714  0.20943917     0.14300
H119        H  0.91248517  0.14400428  0.13423288     0.14300
N120        N  0.56343048  0.34826521  0.13374193    -0.02000
C121        C  0.57657393  0.32008879  0.16292925     0.00600
C122        C  0.61587853  0.29450664  0.15064996    -0.22300
C123        C  0.62488400  0.30320998  0.11234022    -0.22500
C124        C  0.59196587  0.33454930  0.10202886     0.00500
H125        H  0.63206148  0.26750941  0.16611103     0.14300
H126        H  0.65065722  0.28627158  0.09312492     0.14300
N127        N  0.40762452  0.46375972  0.15977768    -0.02000
C128        C  0.38877150  0.44479446  0.19259192     0.00600
C129        C  0.38053526  0.39927918  0.18381528    -0.22300
C130        C  0.38287228  0.39308934  0.14375637    -0.22500
C131        C  0.39744987  0.43346646  0.12976846     0.00500
H132        H  0.36314034  0.37562374  0.20289954     0.14300
H133        H  0.37072272  0.36388233  0.12669967     0.14300
O134        O  0.02756553  0.04918532  0.11886220    -0.70300
O135        O  0.54237755  0.42056818  0.11183851    -0.70500
O136        O  0.45521598  0.98412330  0.11576211    -0.70400
O137        O  0.10784108  0.48200685  0.10630261    -0.70400
O138        O  0.09724418  0.97354934  0.16819294    -0.70400
O139        O  0.48517749  0.47673054  0.18783654    -0.70400
O140        O  0.05659329  0.41361251  0.17244472    -0.70300
O141        O  0.52978587  0.03964741  0.18124541    -0.70500
V142        V  0.54364655  0.48513031  0.11822615     1.35200
V143        V  0.55398009  0.48064598  0.17834043     1.35200
C144        C  0.02874547  0.06770253  0.15324785     0.78900
C145        C  0.55194125  0.39601345  0.14039407     0.79000
C146        C  0.45745580  0.47870345  0.15856727     0.78900
C147        C  0.13759746  0.47765043  0.13324419     0.78800
N148        N  0.42842403  0.33406021  0.98205849    -0.02000
C149        C  0.40570803  0.29838536  0.96472116     0.00600
C150        C  0.38798193  0.31081085  0.92857158    -0.22300
C151        C  0.39018312  0.35631626  0.92833620    -0.22500
C152        C  0.41391236  0.36897596  0.96179328     0.00500
H153        H  0.36375356  0.29141144  0.90984262     0.14300
H154        H  0.37061216  0.37775435  0.90934380     0.14300
N155        N  0.48974467  0.38934159  0.34263620    -0.02000
C156        C  0.46394312  0.36707535  0.31360904     0.00600
C157        C  0.42342566  0.34755178  0.33063274    -0.22300
C158        C  0.93583227  0.35097411  0.36724826    -0.22500
C159        C  0.47645142  0.36593328  0.37464141     0.00500
H160        H  0.39725351  0.32610942  0.31571963     0.14300
H161        H  0.91994712  0.32556851  0.38479868     0.14300
N162        N  0.34160317  0.52303756  0.38256330    -0.02000
C163        C  0.30648722  0.53122305  0.35638924     0.00600
C164        C  0.26828531  0.55308774  0.37496834    -0.22300
C165        C  0.27913421  0.55752796  0.41407948    -0.22500
C166        C  0.32359375  0.53797581  0.41866059     0.00500
H167        H  0.23429622  0.56132860  0.36201330     0.14300
H168        H  0.25489674  0.56949715  0.43749748     0.14300
O169        O  0.35955986  0.41221293  0.99804646    -0.70300
O170        O  0.29122495  0.02515512  0.55056726    -0.70500
O171        O  0.30034191  0.50026747  0.47609173    -0.70400
O172        O  0.32428905  0.95730791  0.06517094    -0.70400
O173        O  0.42670157  0.46004124  0.06779749    -0.70400
O174        O  0.36865997  0.01949222  0.46805624    -0.70400
O175        O  0.39499547  0.04246085  0.04140725    -0.70300
O176        O  0.39870240  0.43680129  0.48788860    -0.70500
V177        V  0.34220026  0.46655746  0.02283383     1.35200
V178        V  0.41348956  0.48886595  0.02023783     1.35200
C179        C  0.40127885  0.40878034  0.98322645     0.78900
C180        C  0.35696068  0.05926361  0.05625079     0.79000
C181        C  0.33432896  0.51871703  0.45730603     0.78900
C182        C  0.39193856  0.44531308  0.08830043     0.78800
O183        O  0.47249421  0.09035570  0.38714846    -0.70300
O184        O  0.00197850  0.46502649  0.37963431    -0.70500
O185        O  0.04941269  0.03754138  0.37322439    -0.70400
O186        O  0.42344630  0.51611056  0.39820167    -0.70400
O187        O  0.40130365  0.02411554  0.33247304    -0.70400
O188        O  0.04669505  0.53553063  0.31351907    -0.70400
O189        O  0.47727887  0.46325586  0.31824542    -0.70300
O190        O  0.96671326  0.09798093  0.32669347    -0.70500
V191        V  0.48347655  0.02693653  0.38065249     1.35200
V192        V  0.47536314  0.52837955  0.32545668     1.35200
C193        C  0.96669101  0.11728509  0.36091677     0.78900
C194        C  0.48935341  0.43908260  0.34652836     0.79000
C195        C  0.07630843  0.53448276  0.34154118     0.78900
C196        C  0.39232084  0.51996925  0.37201498     0.78800
O197        O  0.01516832  0.32390861  0.41773588    -0.70300
O198        O  0.58566736  0.30880957  0.03485566    -0.70500
O199        O  0.46495229  0.30085281  0.48234114    -0.70400
O200        O  0.13794367  0.32375564  0.97030920    -0.70400
O201        O  0.12595404  0.39470180  0.98117993    -0.70400
O202        O  0.49622535  0.37451274  0.00321403    -0.70400
O203        O  0.07117284  0.37710826  0.04568743    -0.70300
O204        O  0.50423071  0.39229714  0.43607564    -0.70500
V205        V  0.07070974  0.31494971  0.97875410     1.35200
V206        V  0.06002428  0.38321628  0.99115340     1.35200
C207        C  0.00405874  0.36382020  0.41018892     0.78900
C208        C  0.07802607  0.33852834  0.05814901     0.79000
C209        C  0.47825592  0.33649429  0.99371510     0.78900
C210        C  0.15329273  0.36355696  0.96829545     0.78800
O211        O  0.34531982  0.24368057  0.97127840    -0.70300
O212        O  0.21701833  0.21524965  0.99766183    -0.70500
O213        O  0.25941439  0.27082003  0.94796214    -0.70400
O214        O  0.30406767  0.18934673  0.02014218    -0.70400
O215        O  0.25232096  0.22617872  0.55809591    -0.70400
O216        O  0.21510848  0.30731734  0.48477849    -0.70400
O217        O  0.16797287  0.24705045  0.52252212    -0.70300
O218        O  0.30001998  0.28773710  0.51440830    -0.70500
V219        V  0.28127279  0.23072248  0.98523080     1.35200
V220        V  0.23444892  0.26584647  0.51955935     1.35200
C221        C  0.32608749  0.27162428  0.48591436     0.78900
C222        C  0.19768468  0.23134060  0.02904284     0.79000
C223        C  0.21076467  0.29675955  0.44894952     0.78900
C224        C  0.31774073  0.20290153  0.05374084     0.78800
O225        O  0.29389320  0.44944216  0.73193719    -0.70300
O226        O  0.19613166  0.51465630  0.78911939    -0.70500
O227        O  0.20690322  0.48673388  0.71261794    -0.70400
O228        O  0.28291243  0.48124665  0.80717902    -0.70400
O229        O  0.31077120  0.03988833  0.78543351    -0.70400
O230        O  0.23060584  0.05087813  0.69928220    -0.70400
O231        O  0.22221386  0.07545797  0.77520361    -0.70300
O232        O  0.31695946  0.01115210  0.70953683    -0.70500
V233        V  0.24609993  0.48380667  0.75967619     1.35200
V234        V  0.26943581  0.04310469  0.74240282     1.35200
C235        C  0.32786522  0.46761369  0.71287105     0.78900
C236        C  0.19932961  0.55659457  0.79462857     0.79000
C237        C  0.21013537  0.52218546  0.69295344     0.78900
C238        C  0.31422246  0.51152220  0.81537768     0.78800
O239        O  0.47060217  0.31765719  0.76719544    -0.70300
O240        O  0.46724996  0.21043583  0.70539274    -0.70500
O241        O  0.44462831  0.23031020  0.78131748    -0.70400
O242        O  0.49684228  0.29576507  0.69380684    -0.70400
O243        O  0.06619846  0.27359982  0.71424292    -0.70400
O244        O  0.01518760  0.20849458  0.79960560    -0.70400
O245        O  0.03706621  0.18457168  0.72445673    -0.70300
O246        O  0.03927885  0.29761554  0.78938571    -0.70500
V247        V  0.47135791  0.26304827  0.73747447     1.35200
V248        V  0.03852579  0.24172982  0.75622130     1.35200
C249        C  0.50457715  0.32882091  0.78958319     0.78900
C250        C  0.49854848  0.17987132  0.70566911     0.79000
C251        C  0.47182374  0.20970521  0.80474138     0.78900
C252        C  0.54224400  0.29842292  0.68964867     0.78800
N253        N  0.08818983  0.16533532  0.49731213    -0.02000
C254        C  0.10463427  0.20604652  0.48696773     0.00600
C255        C  0.10121718  0.20699816  0.44585652    -0.22300
C256        C  0.10147201  0.16274116  0.43213191    -0.22500
C257        C  0.09628670  0.13839309  0.46541148     0.00500
H258        H  0.11449010  0.23385116  0.42801397     0.14300
H259        H  0.11129553  0.15026522  0.40271737     0.14300
N260        N  0.16464758  0.36265091  0.44559705    -0.02000
C261        C  0.19267820  0.33202200  0.42529397     0.00600
C262        C  0.22938781  0.35436430  0.40603650    -0.22300
C263        C  0.23031703  0.39728238  0.42226651    -0.22500
C264        C  0.19154391  0.40055850  0.44825170     0.00500
H265        H  0.25886118  0.33888298  0.38928406     0.14300
H266        H  0.25790092  0.42234784  0.41741258     0.14300
N267        N  0.14172702  0.56115182  0.85329346    -0.02000
C268        C  0.16609191  0.58163377  0.82324739     0.00600
C269        C  0.18381135  0.62266219  0.83755362    -0.22300
C270        C  0.17766129  0.62403058  0.87768888    -0.22500
C271        C  0.15320301  0.58553315  0.88696082     0.00500
H272        H  0.20818504  0.64461022  0.82208535     0.14300
H273        H  0.19470806  0.64761946  0.89815513     0.14300
O274        O  0.12345571  0.54619932  0.94386369    -0.70300
O275        O  0.11246470  0.01366869  0.53695496    -0.70500
O276        O  0.12088874  0.06875837  0.02011694    -0.70400
O277        O  0.14151250  0.44730724  0.48966039    -0.70400
O278        O  0.22699896  0.48278544  0.95470728    -0.70400
O279        O  0.15696989  0.08569909  0.47154568    -0.70400
O280        O  0.19362635  0.53570165  0.53168987    -0.70300
O281        O  0.18505952  0.03597319  0.93000291    -0.70500
V282        V  0.13682033  0.51110191  0.98825372     1.35200
V283        V  0.18413738  0.53044561  0.47565062     1.35200
C284        C  0.15776541  0.56597855  0.92653450     0.78900
C285        C  0.15898808  0.52756068  0.55555776     0.79000
C286        C  0.11254062  0.09298362  0.46999686     0.78900
C287        C  0.18183646  0.44067575  0.47323889     0.78800
N288        N  0.15995882  0.51010804  0.62993289    -0.02000
C289        C  0.17690570  0.53599442  0.66104758     0.00600
C290        C  0.17891375  0.58058979  0.65109391    -0.22300
C291        C  0.17193467  0.58177697  0.61160528    -0.22500
C292        C  0.16344780  0.53837998  0.59873749     0.00500
H293        H  0.19135873  0.60858087  0.66952832     0.14300
H294        H  0.17509222  0.61087015  0.59367506     0.14300
N295        N  0.32125352  0.12874176  0.55844127    -0.02000
C296        C  0.28847351  0.15793395  0.57264346     0.00600
C297        C  0.26503233  0.14185570  0.60526240    -0.22300
C298        C  0.28332426  0.09932344  0.60959662    -0.22500
C299        C  0.31742559  0.09230000  0.57985597     0.00500
H300        H  0.23391918  0.15650481  0.62040841     0.14300
H301        H  0.26928235  0.07425264  0.62884313     0.14300
N302        N  0.97512605  0.15975211  0.86855592    -0.02000
C303        C  0.95040705  0.18556939  0.84253194     0.00600
C304        C  0.91628157  0.21130860  0.86270152    -0.22300
C305        C  0.42440047  0.20847760  0.90017585    -0.22500
C306        C  0.96132661  0.17738075  0.90505067     0.00500
H307        H  0.89323567  0.23644188  0.85084719     0.14300
H308        H  0.40505769  0.22440772  0.92389044     0.14300
O309        O  0.48416453  0.20485079  0.96915659    -0.70300
O310        O  0.95918544  0.17264774  0.58136460    -0.70500
O311        O  0.06019301  0.20408892  0.02246159    -0.70400
O312        O  0.37727579  0.17902364  0.53396450    -0.70400
O313        O  0.43661177  0.11452406  0.02324565    -0.70400
O314        O  0.01970541  0.12217763  0.50891031    -0.70400
O315        O  0.45919596  0.10565386  0.56223447    -0.70300
O316        O  0.98773268  0.13219601  0.95782399    -0.70500
V317        V  0.99222476  0.19463703  0.02491554     1.35200
V318        V  0.95244122  0.11786385  0.51115725     1.35200
C319        C  0.98111661  0.17070776  0.94515317     0.78900
C320        C  0.95943006  0.13191268  0.59125293     0.79000
C321        C  0.03960584  0.16048790  0.51083659     0.78900
C322        C  0.36089121  0.13961386  0.53282240     0.78800
N323        N  0.99686677  0.10870994  0.65472701    -0.02000
C324        C  0.98349885  0.12569467  0.69179952     0.00600
C325        C  0.93331899  0.12122735  0.69443188    -0.22300
C326        C  0.91741625  0.12297482  0.65649741    -0.22500
C327        C  0.95828405  0.11995863  0.63312330     0.00500
H328        H  0.91101094  0.13163850  0.71968191     0.14300
H329        H  0.88136939  0.13095930  0.64751654     0.14300
N330        N  0.54945253  0.34317212  0.62652515    -0.02000
C331        C  0.56679079  0.31463407  0.65366940     0.00600
C332        C  0.59801326  0.28372689  0.63578737    -0.22300
C333        C  0.59644149  0.28930651  0.59656763    -0.22500
C334        C  0.56666533  0.32507589  0.59112682     0.00500
H335        H  0.61377086  0.25493126  0.64903575     0.14300
H336        H  0.61176948  0.26674296  0.57422947     0.14300
N337        N  0.38405103  0.45211017  0.65471509    -0.02000
C338        C  0.36050191  0.43774218  0.68756937     0.00600
C339        C  0.34159668  0.39514108  0.67908466    -0.22300
C340        C  0.34440314  0.38787077  0.63910941    -0.22500
C341        C  0.36908955  0.42388499  0.62483707     0.00500
H342        H  0.31792088  0.37626026  0.69802481     0.14300
H343        H  0.32522745  0.36226518  0.62212064     0.14300
O344        O  0.00965037  0.04033868  0.61575356    -0.70300
O345        O  0.52567441  0.41537090  0.60623682    -0.70500
O346        O  0.44160570  0.97859131  0.61825586    -0.70400
O347        O  0.08798812  0.47827613  0.60624268    -0.70400
O348        O  0.08652284  0.98129847  0.66573983    -0.70400
O349        O  0.46226597  0.46265260  0.68252269    -0.70400
O350        O  0.04083944  0.40258907  0.66777208    -0.70300
O351        O  0.50815535  0.04240467  0.67877877    -0.70500
V352        V  0.52136780  0.47942942  0.61438495     1.35200
V353        V  0.53039522  0.47435150  0.67452745     1.35200
C354        C  0.00751735  0.06008287  0.64977887     0.78900
C355        C  0.53739635  0.39076689  0.63407140     0.79000
C356        C  0.43456474  0.46541498  0.65335740     0.78900
C357        C  0.11468864  0.48619557  0.63533818     0.78800
N358        N  0.38724645  0.33287800  0.48411586    -0.02000
C359        C  0.36484103  0.29706243  0.46637837     0.00600
C360        C  0.34888374  0.30885843  0.42953155    -0.22300
C361        C  0.35239913  0.35406011  0.42814282    -0.22500
C362        C  0.37464978  0.36729885  0.46201500     0.00500
H363        H  0.32560500  0.28933813  0.41011840     0.14300
H364        H  0.33552065  0.37521906  0.40733181     0.14300
N365        N  0.52299033  0.38681978  0.84654239    -0.02000
C366        C  0.49159820  0.36358853  0.82185163     0.00600
C367        C  0.45816859  0.34076250  0.84449583    -0.22300
C368        C  0.98024781  0.33132445  0.87668943    -0.22500
C369        C  0.51909642  0.36238116  0.87968819     0.00500
H370        H  0.42976831  0.31850789  0.83392176     0.14300
H371        H  0.97192631  0.30625707  0.89781945     0.14300
N372        N  0.36408871  0.51602603  0.87978892    -0.02000
C373        C  0.32486526  0.52355060  0.85692723     0.00600
C374        C  0.28880992  0.54471475  0.87895003    -0.22300
C375        C  0.30470248  0.55003239  0.91636815    -0.22500
C376        C  0.34932167  0.53063595  0.91708932     0.00500
H377        H  0.25364030  0.55389942  0.86894194     0.14300
H378        H  0.28432131  0.56261318  0.94180321     0.14300
O379        O  0.32305441  0.41766036  0.49310714    -0.70300
O380        O  0.31697023  0.04170575  0.04821324    -0.70500
O381        O  0.33079592  0.48890752  0.97269789    -0.70400
O382        O  0.31139879  0.94179279  0.56637090    -0.70400
O383        O  0.39707314  0.45570441  0.56548279    -0.70400
O384        O  0.38282442  0.02567267  0.96262277    -0.70400
O385        O  0.36808495  0.03905539  0.54831543    -0.70300
O386        O  0.43220773  0.43872021  0.98961189    -0.70500
V387        V  0.31172489  0.47014432  0.52313558     1.35200
V388        V  0.38461850  0.48753734  0.51985497     1.35200
C389        C  0.36506601  0.40970707  0.48055912     0.78900
C390        C  0.32638704  0.04929348  0.56066984     0.79000
C391        C  0.36266372  0.51128162  0.95493462     0.78900
C392        C  0.36254871  0.43899790  0.58465408     0.78800
O393        O  0.49439974  0.08855826  0.88887416    -0.70300
O394        O  0.01984287  0.45464993  0.88211201    -0.70500
O395        O  0.05935858  0.02288668  0.87617137    -0.70400
O396        O  0.44441183  0.51088780  0.89700950    -0.70400
O397        O  0.41475647  0.02281417  0.82977444    -0.70400
O398        O  0.06809024  0.53697537  0.82081154    -0.70400
O399        O  0.51378749  0.46087576  0.82090038    -0.70300
O400        O  0.97846024  0.09247809  0.82759728    -0.70500
V401        V  0.49464042  0.02384218  0.88147292     1.35200
V402        V  0.50255377  0.52547125  0.82832340     1.35200
C403        C  0.98318866  0.11133954  0.86152183     0.78900
C404        C  0.52068714  0.43663792  0.85039871     0.79000
C405        C  0.09384398  0.54038348  0.85160895     0.78900
C406        C  0.41516838  0.51196010  0.86931432     0.78800
O407        O  0.06183441  0.32288595  0.92446844    -0.70300
O408        O  0.54643251  0.30094943  0.52597272    -0.70500
O409        O  0.50685194  0.30401996  0.98746336    -0.70400
O410        O  0.09703113  0.31619685  0.45820434    -0.70400
O411        O  0.08974851  0.38663538  0.47378293    -0.70400
O412        O  0.45874894  0.37061141  0.50233351    -0.70400
O413        O  0.04054551  0.36666920  0.54019000    -0.70300
O414        O  0.54737965  0.39572202  0.93956256    -0.70500
V415        V  0.02978511  0.31033275  0.47030858     1.35200
V416        V  0.02417357  0.37790331  0.48774538     1.35200
C417        C  0.04765046  0.36039270  0.91299636     0.78900
C418        C  0.04738383  0.32698426  0.54956824     0.79000
C419        C  0.43827389  0.33366425  0.49254737     0.78900
C420        C  0.11599785  0.35473317  0.46055953     0.78800
O421        O  0.30592570  0.73528465  0.47095748    -0.70300
O422        O  0.18622866  0.68891629  0.49456781    -0.70500
O423        O  0.21660842  0.75083152  0.44607077    -0.70400
O424        O  0.27264863  0.67688042  0.51962758    -0.70400
O425        O  0.28720002  0.72918845  0.05772216    -0.70400
O426        O  0.22570760  0.81016129  0.99617268    -0.70400
O427        O  0.19702702  0.75380368  0.05278049    -0.70300
O428        O  0.31453680  0.78311489  0.00138624    -0.70500
V429        V  0.24523154  0.71388603  0.48390172     1.35200
V430        V  0.25602778  0.76861958  0.02629402     1.35200
C431        C  0.31807342  0.77367737  0.96487269     0.78900
C432        C  0.15501476  0.71257107  0.51245726     0.79000
C433        C  0.19201295  0.79529386  0.97509261     0.78900
C434        C  0.27258892  0.68807628  0.55579097     0.78800
O435        O  0.31949846  0.93491920  0.23722685    -0.70300
O436        O  0.19555289  0.95026502  0.28005517    -0.70500
O437        O  0.22965902  0.92219539  0.21059589    -0.70400
O438        O  0.28392923  0.96631422  0.30768543    -0.70400
O439        O  0.29942273  0.53518555  0.28718112    -0.70400
O440        O  0.23220388  0.49575691  0.19572926    -0.70400
O441        O  0.20487195  0.52417718  0.26956340    -0.70300
O442        O  0.32735539  0.50206768  0.21266296    -0.70500
V443        V  0.25740393  0.94472142  0.25869488     1.35200
V444        V  0.26642346  0.51364819  0.24161805     1.35200
C445        C  0.33417059  0.95948276  0.21020865     0.78900
C446        C  0.17360035  0.98722930  0.28170104     0.79000
C447        C  0.21214764  0.94997755  0.18738953     0.78900
C448        C  0.29528729  0.00750848  0.31176462     0.78800
O449        O  0.44963998  0.81049020  0.26407653    -0.70300
O450        O  0.47217630  0.70210439  0.20679523    -0.70500
O451        O  0.43923696  0.72142363  0.27990650    -0.70400
O452        O  0.48376737  0.79006693  0.19217428    -0.70400
O453        O  0.05373371  0.78754252  0.21242709    -0.70400
O454        O  0.01060055  0.72313292  0.30317251    -0.70400
O455        O  0.04183237  0.69707278  0.23019134    -0.70300
O456        O  0.01980010  0.81348372  0.28616843    -0.70500
V457        V  0.46287308  0.75593027  0.23638428     1.35200
V458        V  0.03050545  0.75569728  0.25728622     1.35200
C459        C  0.48025458  0.82990684  0.28592636     0.78900
C460        C  0.50880110  0.67793009  0.21111752     0.79000
C461        C  0.46699211  0.70853600  0.30678119     0.78900
C462        C  0.52815074  0.79889682  0.18774997     0.78800
N463        N  0.11965818  0.65911392  0.04719000    -0.02000
C464        C  0.14090306  0.69445741  0.06624165     0.00600
C465        C  0.16060975  0.67933697  0.10052440    -0.22300
C466        C  0.16171214  0.63317456  0.09653023    -0.22500
C467        C  0.13711285  0.62211866  0.06273744     0.00500
H468        H  0.18410271  0.69868138  0.11988114     0.14300
H469        H  0.18419572  0.61115634  0.11275084     0.14300
N470        N  0.13504424  0.85329267  0.95635910    -0.02000
C471        C  0.14640744  0.81935118  0.97990763     0.00600
C472        C  0.14065463  0.83537125  0.01875506    -0.22300
C473        C  0.14939248  0.88004425  0.01677919    -0.22500
C474        C  0.15321048  0.88884419  0.97719772     0.00500
H475        H  0.14492276  0.81738211  0.04531585     0.14300
H476        H  0.15102887  0.90256881  0.04167890     0.14300
N477        N  0.11612329  0.01526284  0.33344073    -0.02000
C478        C  0.12459490  0.98779958  0.30103375     0.00600
C479        C  0.11027490  0.94447273  0.31060413    -0.22300
C480        C  0.11651205  0.94320175  0.35042122    -0.22500
C481        C  0.12654841  0.98694362  0.36234214     0.00500
H482        H  0.11143645  0.91474527  0.29116844     0.14300
H483        H  0.11660138  0.91379305  0.36808356     0.14300
O484        O  0.09957031  0.98951917  0.42798606    -0.70300
O485        O  0.14782846  0.47480179  0.03268886    -0.70500
O486        O  0.08790087  0.56138476  0.47920676    -0.70400
O487        O  0.11731494  0.95749739  0.96643484    -0.70400
O488        O  0.20183871  0.96755582  0.46745433    -0.70400
O489        O  0.19280279  0.58171158  0.02239203    -0.70400
O490        O  0.20806614  0.99933044  0.03320220    -0.70300
O491        O  0.17600718  0.52520720  0.41997694    -0.70500
V492        V  0.10796282  0.00303274  0.48180827     1.35200
V493        V  0.19472730  0.01738892  0.98194588     1.35200
C494        C  0.13167895  0.00062953  0.40366049     0.78900
C495        C  0.17430337  0.98386508  0.05395219     0.79000
C496        C  0.15038473  0.58480078  0.03631690     0.78900
C497        C  0.15547599  0.93506434  0.96485775     0.78800
N498        N  0.16722993  0.96332655  0.12643233    -0.02000
C499        C  0.19386961  0.93583747  0.14864268     0.00600
C500        C  0.22574254  0.91129517  0.12472022    -0.22300
C501        C  0.22240250  0.92697837  0.08767879    -0.22500
C502        C  0.18684547  0.95910633  0.08938421     0.00500
H503        H  0.25346274  0.88906470  0.13422829     0.14300
H504        H  0.24361555  0.91606351  0.06202776     0.14300
N505        N  0.34980556  0.62834460  0.05195167    -0.02000
C506        C  0.31880694  0.65918045  0.06628095     0.00600
C507        C  0.29151937  0.64329920  0.09721018    -0.22300
C508        C  0.30488701  0.59960598  0.10092264    -0.22500
C509        C  0.34093723  0.59192757  0.07307627     0.00500
H510        H  0.26103597  0.65962871  0.11178320     0.14300
H511        H  0.28741014  0.57519931  0.11918332     0.14300
N512        N  0.96129831  0.66579662  0.37344327    -0.02000
C513        C  0.94604975  0.69672145  0.34638371     0.00600
C514        C  0.91678924  0.72837709  0.36513471    -0.22300
C515        C  0.41149349  0.71461151  0.40168130    -0.22500
C516        C  0.94316276  0.68292288  0.40953881     0.00500
H517        H  0.90089496  0.75717324  0.35210526     0.14300
H518        H  0.39222921  0.73409809  0.42389490     0.14300
O519        O  0.43935048  0.69514157  0.47784197    -0.70300
O520        O  0.98521200  0.67104984  0.08673518    -0.70500
O521        O  0.01635977  0.69015671  0.52897258    -0.70400
O522        O  0.41137731  0.67775563  0.03435289    -0.70400
O523        O  0.38662146  0.60775164  0.51949952    -0.70400
O524        O  0.05500790  0.62152665  0.01698071    -0.70400
O525        O  0.49202604  0.60198952  0.06815374    -0.70300
O526        O  0.95528244  0.62866301  0.46090120    -0.70500
V527        V  0.95014442  0.68188972  0.53412608     1.35200
V528        V  0.98725512  0.61541829  0.01631807     1.35200
C529        C  0.94843035  0.66867773  0.45166825     0.78900
C530        C  0.98720827  0.63059300  0.09664287     0.79000
C531        C  0.07347542  0.65856340  0.02855003     0.78900
C532        C  0.39440235  0.63850555  0.03170147     0.78800
N533        N  0.02302246  0.61403130  0.16166273    -0.02000
C534        C  0.00410486  0.62890537  0.19763814     0.00600
C535        C  0.95557267  0.61587780  0.19810462    -0.22300
C536        C  0.94209075  0.61524828  0.15937267    -0.22500
C537        C  0.98453401  0.61930944  0.13829691     0.00500
H538        H  0.93011030  0.62267354  0.22218163     0.14300
H539        H  0.90583002  0.61731635  0.14849586     0.14300
N540        N  0.52864235  0.84244157  0.12278700    -0.02000
C541        C  0.54847395  0.81350931  0.14895410     0.00600
C542        C  0.57402342  0.78015795  0.12851891    -0.22300
C543        C  0.56630799  0.78491064  0.08957064    -0.22500
C544        C  0.53763956  0.82180582  0.08612546     0.00500
H545        H  0.59065510  0.75123306  0.14082570     0.14300
H546        H  0.57919617  0.76302184  0.06573294     0.14300
N547        N  0.38499665  0.95876302  0.14734737    -0.02000
C548        C  0.36577067  0.93766968  0.17888573     0.00600
C549        C  0.35137065  0.89450227  0.16692897    -0.22300
C550        C  0.35437246  0.89153764  0.12672122    -0.22500
C551        C  0.37350626  0.93158464  0.11547654     0.00500
H552        H  0.33102858  0.87117644  0.18442052     0.14300
H553        H  0.33894901  0.86540139  0.10777192     0.14300
O554        O  0.04271566  0.54784100  0.12284368    -0.70300
O555        O  0.51998624  0.91791942  0.10222859    -0.70500
O556        O  0.47656587  0.48669292  0.12570870    -0.70400
O557        O  0.09065601  0.98208671  0.10574110    -0.70400
O558        O  0.12153210  0.48045641  0.16877098    -0.70400
O559        O  0.46034650  0.97249524  0.17807679    -0.70400
O560        O  0.02575119  0.91133200  0.16385479    -0.70300
O561        O  0.55045364  0.54550667  0.18533527    -0.70500
V562        V  0.52317954  0.98223106  0.11156971     1.35200
V563        V  0.52944882  0.97470851  0.17177934     1.35200
C564        C  0.04091588  0.56746704  0.15681506     0.78900
C565        C  0.52464702  0.89139834  0.13025603     0.79000
C566        C  0.43440972  0.97480320  0.14778257     0.78900
C567        C  0.11719784  0.97487110  0.13427122     0.78800
N568        N  0.36374512  0.84065582  0.95918940    -0.02000
C569        C  0.34041635  0.80661407  0.94051621     0.00600
C570        C  0.31025985  0.82398472  0.91269524    -0.22300
C571        C  0.31121543  0.86987877  0.91821922    -0.22500
C572        C  0.34498143  0.87875122  0.94654033     0.00500
H573        H  0.28253752  0.80576694  0.89665687     0.14300
H574        H  0.28696121  0.89355785  0.90574889     0.14300
N575        N  0.48776067  0.89074338  0.34156926    -0.02000
C576        C  0.46176461  0.86880748  0.31236625     0.00600
C577        C  0.41787822  0.85532500  0.32852804    -0.22300
C578        C  0.92755683  0.85214601  0.36466096    -0.22500
C579        C  0.47037033  0.87016596  0.37399619     0.00500
H580        H  0.39002936  0.83599922  0.31358876     0.14300
H581        H  0.91033875  0.82875274  0.38350107     0.14300
N582        N  0.33573629  0.02148613  0.37806267    -0.02000
C583        C  0.30104521  0.02920052  0.35138558     0.00600
C584        C  0.26289638  0.05196741  0.36916826    -0.22300
C585        C  0.27327985  0.05756713  0.40825312    -0.22500
C586        C  0.31747965  0.03786333  0.41368119     0.00500
H587        H  0.22908196  0.05995845  0.35579829     0.14300
H588        H  0.24870526  0.07024536  0.43116441     0.14300
O589        O  0.31080259  0.93408239  0.98841459    -0.70300
O590        O  0.29681621  0.52186341  0.55412535    -0.70500
O591        O  0.29250246  0.00362084  0.47247466    -0.70400
O592        O  0.35083454  0.44323112  0.07322640    -0.70400
O593        O  0.40130271  0.95632334  0.05279447    -0.70400
O594        O  0.37545274  0.51996052  0.47274729    -0.70400
O595        O  0.39765483  0.53976095  0.05107274    -0.70300
O596        O  0.38785294  0.93612067  0.48385663    -0.70500
V597        V  0.31584188  0.98807846  0.01811324     1.35200
V598        V  0.39019046  0.99101267  0.00797989     1.35200
C599        C  0.34751317  0.92004920  0.96965898     0.78900
C600        C  0.35417166  0.54835143  0.05812272     0.79000
C601        C  0.32734897  0.01980116  0.45296837     0.78900
C602        C  0.36630875  0.94832005  0.07586223     0.78800
O603        O  0.48125852  0.58859678  0.39314784    -0.70300
O604        O  0.99171902  0.96440989  0.37583275    -0.70500
O605        O  0.05897793  0.53908722  0.37618215    -0.70400
O606        O  0.41768765  0.01620522  0.39396327    -0.70400
O607        O  0.40731755  0.52560277  0.33690554    -0.70400
O608        O  0.03867284  0.03456787  0.31028189    -0.70400
O609        O  0.47319732  0.96329352  0.31545074    -0.70300
O610        O  0.97439474  0.59900077  0.33152484    -0.70500
V611        V  0.48964842  0.52471330  0.38494759     1.35200
V612        V  0.46908350  0.02826177  0.32101776     1.35200
C613        C  0.97508695  0.61832133  0.36575993     0.78900
C614        C  0.48666460  0.94048036  0.34417030     0.79000
C615        C  0.06743204  0.03314000  0.33880459     0.78900
C616        C  0.38648533  0.01891726  0.36767720     0.78800
O617        O  0.00463086  0.82316068  0.41589893    -0.70300
O618        O  0.51501218  0.79956122  0.01991981    -0.70500
O619        O  0.45260577  0.80198688  0.48406353    -0.70400
O620        O  0.06067581  0.81770359  0.94835341    -0.70400
O621        O  0.05968455  0.88831154  0.96628985    -0.70400
O622        O  0.42855461  0.87252979  0.99349871    -0.70400
O623        O  0.01050008  0.87402353  0.03434125    -0.70300
O624        O  0.49967902  0.89389878  0.43610189    -0.70500
V625        V  0.99625336  0.81415612  0.96618232     1.35200
V626        V  0.99414066  0.88272061  0.98078789     1.35200
C627        C  0.99680199  0.86341268  0.40710835     0.78900
C628        C  0.02008050  0.83497356  0.04453172     0.79000
C629        C  0.40822555  0.83742921  0.97990245     0.78900
C630        C  0.08319408  0.85425073  0.95320219     0.78800
O631        O  0.29081008  0.74412508  0.94975105    -0.70300
O632        O  0.19528445  0.69424455  0.01360367    -0.70500
O633        O  0.19451817  0.75535194  0.96126543    -0.70400
O634        O  0.28991705  0.68305920  0.00614904    -0.70400
O635        O  0.25499421  0.72510003  0.56755252    -0.70400
O636        O  0.21254542  0.80341955  0.49235591    -0.70400
O637        O  0.16842152  0.74538752  0.53449693    -0.70300
O638        O  0.29902398  0.78487481  0.51955277    -0.70500
V639        V  0.24350345  0.71950797  0.98284474     1.35200
V640        V  0.23441631  0.76349933  0.52831162     1.35200
C641        C  0.32165053  0.76961746  0.48890138     0.78900
C642        C  0.17761841  0.71668730  0.04263505     0.79000
C643        C  0.20399299  0.79003107  0.45762420     0.78900
C644        C  0.29983033  0.69245059  0.04191652     0.78800
O645        O  0.28347158  0.94983260  0.72881911    -0.70300
O646        O  0.18280821  0.01329310  0.78258947    -0.70500
O647        O  0.19713043  0.98596675  0.70694420    -0.70400
O648        O  0.26901379  0.98227333  0.80338669    -0.70400
O649        O  0.32289643  0.54022868  0.79008629    -0.70400
O650        O  0.24278618  0.54993400  0.70245380    -0.70400
O651        O  0.23504636  0.57625355  0.77822608    -0.70300
O652        O  0.32943542  0.51028611  0.71389483    -0.70500
V653        V  0.23427018  0.98353775  0.75492556     1.35200
V654        V  0.28181968  0.54285687  0.74625044     1.35200
C655        C  0.31655967  0.96844384  0.70924983     0.78900
C656        C  0.18591309  0.05485784  0.78989514     0.79000
C657        C  0.19949178  0.02236494  0.68856796     0.78900
C658        C  0.30023212  0.01269354  0.81137827     0.78800
O659        O  0.44829995  0.80473031  0.76885519    -0.70300
O660        O  0.46826462  0.70247244  0.70448507    -0.70500
O661        O  0.43811619  0.71478045  0.78038451    -0.70400
O662        O  0.48275094  0.79125037  0.69627443    -0.70400
O663        O  0.04741350  0.77389944  0.71409199    -0.70400
O664        O  0.00565956  0.71202745  0.80461747    -0.70400
O665        O  0.03001712  0.68352184  0.73096742    -0.70300
O666        O  0.01727660  0.80280589  0.78631786    -0.70500
V667        V  0.46072556  0.75301278  0.73818030     1.35200
V668        V  0.02408693  0.74331875  0.75846565     1.35200
C669        C  0.48132074  0.82657172  0.78581640     0.78900
C670        C  0.50063931  0.67436236  0.71040053     0.79000
C671        C  0.46658222  0.70284734  0.80745450     0.78900
C672        C  0.52794147  0.79686504  0.69168354     0.78800
N673        N  0.08956222  0.66262969  0.50587018    -0.02000
C674        C  0.10588772  0.70432022  0.49934105     0.00600
C675        C  0.10435305  0.70949813  0.45852236    -0.22300
C676        C  0.10413030  0.66682874  0.44124070    -0.22500
C677        C  0.09725458  0.63902761  0.47205643     0.00500
H678        H  0.11921172  0.73753175  0.44316371     0.14300
H679        H  0.11547081  0.65738537  0.41139804     0.14300
N680        N  0.15589681  0.85495666  0.45147830    -0.02000
C681        C  0.18301418  0.82271453  0.43246528     0.00600
C682        C  0.21732845  0.84329185  0.40925651    -0.22300
C683        C  0.21811789  0.88781080  0.42131321    -0.22500
C684        C  0.18141719  0.89345064  0.44894956     0.00500
H685        H  0.24530330  0.82658141  0.39168965     0.14300
H686        H  0.24386073  0.91287079  0.41215099     0.14300
N687        N  0.12853003  0.05248184  0.84744069    -0.02000
C688        C  0.15191207  0.07699356  0.81946916     0.00600
C689        C  0.16831773  0.11688837  0.83715249    -0.22300
C690        C  0.16239007  0.11338400  0.87713486    -0.22500
C691        C  0.13965948  0.07297126  0.88274314     0.00500
H692        H  0.19212650  0.14099214  0.82372608     0.14300
H693        H  0.17877412  0.13492962  0.89957469     0.14300
O694        O  0.10890049  0.04324232  0.94398166    -0.70300
O695        O  0.11943065  0.51507916  0.54101637    -0.70500
O696        O  0.11872272  0.55777317  0.02404650    -0.70400
O697        O  0.13170617  0.94497323  0.48619326    -0.70400
O698        O  0.19536495  0.95575905  0.96532889    -0.70400
O699        O  0.16050614  0.58893427  0.47540525    -0.70400
O700        O  0.18773784  0.03061816  0.52732851    -0.70300
O701        O  0.19819218  0.56676704  0.94289059    -0.70500
V702        V  0.12085221  0.01389423  0.99232997     1.35200
V703        V  0.17776629  0.02610813  0.47145560     1.35200
C704        C  0.14405311  0.04910827  0.92019200     0.78900
C705        C  0.15259705  0.02423172  0.55119463     0.79000
C706        C  0.11574756  0.59429918  0.47407500     0.78900
C707        C  0.17193913  0.93622442  0.47024228     0.78800
N708        N  0.15100091  0.00925569  0.62580785    -0.02000
C709        C  0.16785460  0.03601822  0.65613375     0.00600
C710        C  0.17235893  0.08002082  0.64472818    -0.22300
C711        C  0.16705050  0.07955414  0.60514881    -0.22500
C712        C  0.15690921  0.03604547  0.59381628     0.00500
H713        H  0.18558015  0.10838522  0.66233117     0.14300
H714        H  0.17203060  0.10756240  0.58617678     0.14300
N715        N  0.32485743  0.62718418  0.56510020    -0.02000
C716        C  0.29401804  0.65702434  0.58147279     0.00600
C717        C  0.27108590  0.63954640  0.61375394    -0.22300
C718        C  0.28755410  0.59587000  0.61544950    -0.22500
C719        C  0.32034340  0.58955720  0.58480112     0.00500
H720        H  0.24110311  0.65439698  0.63025341     0.14300
H721        H  0.27366677  0.57006267  0.63388387     0.14300
N722        N  0.96976809  0.65476915  0.87382351    -0.02000
C723        C  0.94504373  0.68077801  0.84746531     0.00600
C724        C  0.91522370  0.71076868  0.86810345    -0.22300
C725        C  0.42360149  0.70776328  0.90406184    -0.22500
C726        C  0.95816652  0.67461469  0.91040988     0.00500
H727        H  0.89433184  0.73732651  0.85593730     0.14300
H728        H  0.40603640  0.72784489  0.92734054     0.14300
O729        O  0.47391859  0.69856621  0.97591236    -0.70300
O730        O  0.95780848  0.66644409  0.58814212    -0.70500
O731        O  0.04705316  0.69288727  0.02989695    -0.70400
O732        O  0.38121878  0.67680779  0.54096638    -0.70400
O733        O  0.42117616  0.60769639  0.01713275    -0.70400
O734        O  0.02211536  0.61835893  0.51584556    -0.70400
O735        O  0.45716753  0.59884455  0.57029910    -0.70300
O736        O  0.98540439  0.62645364  0.96141332    -0.70500
V737        V  0.97941621  0.68319905  0.03229096     1.35200
V738        V  0.95505008  0.61458635  0.51569048     1.35200
C739        C  0.97443947  0.66513610  0.95112534     0.78900
C740        C  0.95846301  0.62528383  0.59666345     0.79000
C741        C  0.04179879  0.65656797  0.51980215     0.78900
C742        C  0.36354523  0.63802248  0.53863052     0.78800
N743        N  0.99874112  0.60364857  0.65946092    -0.02000
C744        C  0.98509258  0.61944408  0.69671493     0.00600
C745        C  0.93557072  0.61048626  0.70002847    -0.22300
C746        C  0.91839229  0.61092045  0.66226329    -0.22500
C747        C  0.95875708  0.61149178  0.63822290     0.00500
H748        H  0.91301679  0.61910014  0.72560540     0.14300
H749        H  0.88150126  0.61623145  0.65398161     0.14300
N750        N  0.53288107  0.84366794  0.62852438    -0.02000
C751        C  0.55171486  0.81598011  0.65603848     0.00600
C752        C  0.58448469  0.78631168  0.63820533    -0.22300
C753        C  0.58153939  0.79037172  0.59893760    -0.22500
C754        C  0.54972827  0.82443404  0.59330923     0.00500
H755        H  0.60232459  0.75873492  0.65167502     0.14300
H756        H  0.59843863  0.76859579  0.57660333     0.14300
N757        N  0.37261599  0.95375053  0.65140843    -0.02000
C758        C  0.34915428  0.93889129  0.68397060     0.00600
C759        C  0.33070401  0.89616794  0.67519075    -0.22300
C760        C  0.33425158  0.88899394  0.63521553    -0.22500
C761        C  0.35874789  0.92530928  0.62126164     0.00500
H762        H  0.30702684  0.87698407  0.69388714     0.14300
H763        H  0.31575105  0.86315669  0.61797292     0.14300
O764        O  0.01586304  0.53685471  0.62041831    -0.70300
O765        O  0.51142277  0.91622903  0.60597318    -0.70500
O766        O  0.45374930  0.47522399  0.62081917    -0.70400
O767        O  0.07871169  0.97808343  0.60244409    -0.70400
O768        O  0.09661169  0.48011210  0.66945915    -0.70400
O769        O  0.45002345  0.96675651  0.68009662    -0.70400
O770        O  0.02685677  0.90532563  0.66542747    -0.70300
O771        O  0.51939259  0.53794860  0.68318168    -0.70500
V772        V  0.50901293  0.98104711  0.61161615     1.35200
V773        V  0.51826316  0.97814213  0.67184565     1.35200
C774        C  0.01319557  0.55608984  0.65448334     0.78900
C775        C  0.52304253  0.89235233  0.63449940     0.79000
C776        C  0.42249860  0.96868560  0.65068136     0.78900
C777        C  0.10518343  0.98625854  0.63153387     0.78800
N778        N  0.37575052  0.83421768  0.48220956    -0.02000
C779        C  0.35482880  0.79704418  0.46629230     0.00600
C780        C  0.33566240  0.80635359  0.42994532    -0.22300
C781        C  0.33669291  0.85160769  0.42712208    -0.22500
C782        C  0.36105089  0.86713637  0.45936406     0.00500
H783        H  0.31359082  0.78416753  0.41174430     0.14300
H784        H  0.31876025  0.87117551  0.40574903     0.14300
N785        N  0.48903431  0.89052492  0.83735111    -0.02000
C786        C  0.46659739  0.87181077  0.80510011     0.00600
C787        C  0.41714424  0.87134171  0.81365592    -0.22300
C788        C  0.90944072  0.86616159  0.85149490    -0.22500
C789        C  0.46036541  0.87410533  0.86599988     0.00500
H790        H  0.38897172  0.85927719  0.79425582     0.14300
H791        H  0.87886090  0.85376270  0.86758603     0.14300
N792        N  0.34691243  0.02820796  0.87564410    -0.02000
C793        C  0.30744879  0.02804854  0.85229122     0.00600
C794        C  0.27030786  0.05119363  0.87073489    -0.22300
C795        C  0.28540481  0.06535879  0.90682345    -0.22500
C796        C  0.33073514  0.04784000  0.91085474     0.00500
H797        H  0.23521655  0.05612925  0.85913515     0.14300
H798        H  0.26301522  0.08099608  0.92990104     0.14300
O799        O  0.31141416  0.92021719  0.48916566    -0.70300
O800        O  0.32218552  0.52076402  0.04746253    -0.70500
O801        O  0.30554662  0.01891048  0.97161625    -0.70400
O802        O  0.32100452  0.43930984  0.57013467    -0.70400
O803        O  0.38801419  0.95573727  0.56151446    -0.70400
O804        O  0.40230308  0.51868182  0.97202409    -0.70400
O805        O  0.37312963  0.53808636  0.55328216    -0.70300
O806        O  0.38709024  0.94020592  0.97389241    -0.70500
V807        V  0.30308177  0.97305271  0.51942706     1.35200
V808        V  0.37668711  0.98752551  0.51549440     1.35200
C809        C  0.35297835  0.91046013  0.47659259     0.78900
C810        C  0.33083301  0.54702847  0.56498340     0.79000
C811        C  0.34083329  0.03086187  0.95014144     0.78900
C812        C  0.35288768  0.94030108  0.58088595     0.78800
O813        O  0.49874104  0.58583551  0.89513980    -0.70300
O814        O  0.99384122  0.95703825  0.87411467    -0.70500
O815        O  0.07389616  0.53017288  0.88352666    -0.70400
O816        O  0.42782190  0.02274813  0.89238152    -0.70400
O817        O  0.43291787  0.51521878  0.83446660    -0.70400
O818        O  0.05378421  0.03609902  0.81429030    -0.70400
O819        O  0.49112117  0.96514187  0.81244965    -0.70300
O820        O  0.98634012  0.58781423  0.83304189    -0.70500
V821        V  0.51040320  0.52162901  0.88868029     1.35200
V822        V  0.48445854  0.02960472  0.82157469     1.35200
C823        C  0.98538831  0.60732455  0.86709827     0.78900
C824        C  0.49389453  0.93986555  0.84163241     0.79000
C825        C  0.07976339  0.03452524  0.84480658     0.78900
C826        C  0.39785554  0.02287635  0.86512351     0.78800
O827        O  0.97624229  0.82418377  0.91417127    -0.70300
O828        O  0.53392992  0.80035739  0.52706101    -0.70500
O829        O  0.43327687  0.80254962  0.97534188    -0.70400
O830        O  0.08442154  0.81263381  0.45894614    -0.70400
O831        O  0.08081290  0.88290846  0.47565318    -0.70400
O832        O  0.44651865  0.87314061  0.49900123    -0.70400
O833        O  0.02493036  0.86699556  0.53892579    -0.70300
O834        O  0.47943420  0.89419864  0.93086714    -0.70500
V835        V  0.01676426  0.81006762  0.46915031     1.35200
V836        V  0.01391294  0.87811201  0.48542920     1.35200
C837        C  0.97047882  0.86417180  0.90421646     0.78900
C838        C  0.03046662  0.82730139  0.54879546     0.79000
C839        C  0.42620648  0.83574092  0.49129610     0.78900
C840        C  0.10576506  0.84978534  0.46333078     0.78800
O841        O  0.80656520  0.24171982  0.46149733    -0.70300
O842        O  0.68446573  0.19661358  0.48126913    -0.70500
O843        O  0.71857194  0.25930640  0.43464504    -0.70400
O844        O  0.77096584  0.18256624  0.50845774    -0.70400
O845        O  0.80936899  0.24861479  0.06079858    -0.70400
O846        O  0.75037476  0.32530834  0.99162818    -0.70400
O847        O  0.71807663  0.26837777  0.04478232    -0.70300
O848        O  0.84117088  0.30426444  0.00741443    -0.70500
V849        V  0.74502170  0.22074091  0.47243300     1.35200
V850        V  0.77954116  0.28596485  0.02533825     1.35200
C851        C  0.86256591  0.28051334  0.98078299     0.78900
C852        C  0.65281929  0.22125131  0.49774763     0.79000
C853        C  0.74609349  0.31413262  0.95565900     0.78900
C854        C  0.76820580  0.19295498  0.54482430     0.78800
O855        O  0.83381821  0.43809256  0.24501386    -0.70300
O856        O  0.70518492  0.44990405  0.27844308    -0.70500
O857        O  0.74793471  0.42339065  0.21069796    -0.70400
O858        O  0.79038154  0.46822456  0.31220715    -0.70400
O859        O  0.78840639  0.04249152  0.27934477    -0.70400
O860        O  0.71532772  0.99663110  0.19384454    -0.70400
O861        O  0.69316462  0.02596596  0.26660721    -0.70300
O862        O  0.81046703  0.00760766  0.20375517    -0.70500
V863        V  0.76937802  0.44601466  0.26139601     1.35200
V864        V  0.75268979  0.01764626  0.23642069     1.35200
C865        C  0.85014627  0.46171131  0.21795851     0.78900
C866        C  0.68352041  0.48701706  0.28214586     0.79000
C867        C  0.73093453  0.45101996  0.18695406     0.78900
C868        C  0.80353742  0.50904816  0.31616863     0.78800
O869        O  0.95840639  0.31770922  0.26245668    -0.70300
O870        O  0.97413787  0.20778244  0.20666415    -0.70500
O871        O  0.93602829  0.22999742  0.27778223    -0.70400
O872        O  0.99908300  0.29416208  0.19395540    -0.70400
O873        O  0.56701701  0.28267037  0.22301786    -0.70400
O874        O  0.50188670  0.21717490  0.30274573    -0.70400
O875        O  0.54183789  0.19238868  0.23282486    -0.70300
O876        O  0.52208004  0.30724299  0.29233711    -0.70500
V877        V  0.96836939  0.26202136  0.23598008     1.35200
V878        V  0.53243262  0.25048717  0.26186927     1.35200
C879        C  0.98740601  0.33322105  0.28760563     0.78900
C880        C  0.00741656  0.17999582  0.21183452     0.79000
C881        C  0.95972543  0.21252936  0.30528452     0.78900
C882        C  0.04430600  0.30025620  0.19503560     0.78800
N883        N  0.63807431  0.17753421  0.02230105    -0.02000
C884        C  0.65647861  0.21223046  0.04456334     0.00600
C885        C  0.67383021  0.19541900  0.07923940    -0.22300
C886        C  0.68016640  0.15029607  0.07208345    -0.22500
C887        C  0.66039135  0.14131632  0.03597248     0.00500
H888        H  0.69275309  0.21433316  0.10208364     0.14300
H889        H  0.69928371  0.12733272  0.09000056     0.14300
N890        N  0.69732916  0.37819516  0.94353893    -0.02000
C891        C  0.72955770  0.34767393  0.92972190     0.00600
C892        C  0.76082009  0.36651091  0.90284753    -0.22300
C893        C  0.74929017  0.41133986  0.90224791    -0.22500
C894        C  0.71027309  0.41746762  0.92766317     0.00500
H895        H  0.79276455  0.35106998  0.88979917     0.14300
H896        H  0.77006743  0.43717095  0.88816392     0.14300
N897        N  0.62346808  0.51452157  0.33426607    -0.02000
C898        C  0.63411597  0.48651112  0.30231335     0.00600
C899        C  0.62259406  0.44299470  0.31338313    -0.22300
C900        C  0.62914865  0.44361507  0.35327240    -0.22500
C901        C  0.63607314  0.48818599  0.36414593     0.00500
H902        H  0.62525073  0.41259592  0.29487636     0.14300
H903        H  0.63091486  0.41497233  0.37174006     0.14300
O904        O  0.60823961  0.49085917  0.43024010    -0.70300
O905        O  0.63318050  0.99283820  0.04108870    -0.70500
O906        O  0.58122984  0.06951725  0.47193779    -0.70400
O907        O  0.65313665  0.46787827  0.95385100    -0.70400
O908        O  0.71144833  0.47537624  0.46917374    -0.70400
O909        O  0.69777957  0.08205747  0.99824133    -0.70400
O910        O  0.72073839  0.50222058  0.03666209    -0.70300
O911        O  0.66968058  0.02513659  0.41450047    -0.70500
V912        V  0.61608168  0.50563701  0.48430794     1.35200
V913        V  0.70738615  0.53639520  0.99231315     1.35200
C914        C  0.63946232  0.50350367  0.40559693     0.78900
C915        C  0.68864625  0.47711920  0.05075675     0.79000
C916        C  0.66074061  0.09768990  0.01623515     0.78900
C917        C  0.69660403  0.46041360  0.94584571     0.78800
N918        N  0.68703467  0.46190722  0.12375727    -0.02000
C919        C  0.71597879  0.43728134  0.14667230     0.00600
C920        C  0.74565250  0.41000024  0.12299436    -0.22300
C921        C  0.73617081  0.41901408  0.08453260    -0.22500
C922        C  0.70006929  0.45068008  0.08561319     0.00500
H923        H  0.77499824  0.38968488  0.13261268     0.14300
H924        H  0.75580784  0.40617513  0.05865707     0.14300
N925        N  0.86453908  0.14423888  0.05877436    -0.02000
C926        C  0.83620220  0.17662100  0.07537115     0.00600
C927        C  0.80812008  0.15963917  0.10532262    -0.22300
C928        C  0.81700587  0.11440082  0.10480384    -0.22500
C929        C  0.85118456  0.10602314  0.07532650     0.00500
H930        H  0.77758263  0.17600727  0.11999109     0.14300
H931        H  0.79527313  0.08968623  0.11954310     0.14300
N932        N  0.44830289  0.16112157  0.36416867    -0.02000
C933        C  0.43035417  0.18810349  0.33524716     0.00600
C934        C  0.39239214  0.21320181  0.35087163    -0.22300
C935        C  0.89644954  0.21094985  0.39605334    -0.22500
C936        C  0.42442424  0.17550234  0.39857665     0.00500
H937        H  0.37314479  0.23926436  0.33650451     0.14300
H938        H  0.87372678  0.22741984  0.41761289     0.14300
O939        O  0.93556981  0.19905264  0.47320304    -0.70300
O940        O  0.49587642  0.18374916  0.07929737    -0.70500
O941        O  0.50903637  0.19900408  0.51302137    -0.70400
O942        O  0.92449736  0.18944834  0.03087520    -0.70400
O943        O  0.88487264  0.11256414  0.51481740    -0.70400
O944        O  0.56897926  0.13755542  0.00047342    -0.70400
O945        O  0.01187589  0.11489527  0.06589182    -0.70300
O946        O  0.44498749  0.12799820  0.45295438    -0.70500
V947        V  0.44306065  0.18714365  0.52231600     1.35200
V948        V  0.50243420  0.12645138  0.01067230     1.35200
C949        C  0.43452164  0.16643589  0.44132473     0.78900
C950        C  0.50465544  0.14436453  0.09014526     0.79000
C951        C  0.58741335  0.17444411  0.01268576     0.78900
C952        C  0.90761184  0.15063327  0.03495150     0.78800
N953        N  0.52277667  0.11488362  0.15769323    -0.02000
C954        C  0.50081158  0.13085583  0.19224017     0.00600
C955        C  0.45131113  0.12619887  0.18601207    -0.22300
C956        C  0.44660984  0.13384549  0.14661219    -0.22500
C957        C  0.49261545  0.13153748  0.13088031     0.00500
H958        H  0.42310543  0.13502036  0.20742559     0.14300
H959        H  0.41479655  0.14549112  0.13264906     0.14300
N960        N  0.06030827  0.34598233  0.13251204    -0.02000
C961        C  0.07361883  0.31760122  0.16150528     0.00600
C962        C  0.11070022  0.28988385  0.14816312    -0.22300
C963        C  0.11833702  0.29790222  0.10961505    -0.22500
C964        C  0.08675583  0.33075765  0.10014407     0.00500
H965        H  0.12625429  0.26236830  0.16336832     0.14300
H966        H  0.14250574  0.27991631  0.08973349     0.14300
N967        N  0.90639666  0.45795889  0.15773277    -0.02000
C968        C  0.88583849  0.43905690  0.18992882     0.00600
C969        C  0.87334728  0.39473532  0.17987391    -0.22300
C970        C  0.87796207  0.38899369  0.13991049    -0.22500
C971        C  0.89678248  0.42841011  0.12690972     0.00500
H972        H  0.85274686  0.37216718  0.19794019     0.14300
H973        H  0.86409200  0.36114904  0.12202093     0.14300
O974        O  0.52669452  0.04650618  0.11815798    -0.70300
O975        O  0.03973889  0.41877754  0.11086495    -0.70500
O976        O  0.95568780  0.98795383  0.11368683    -0.70400
O977        O  0.61002841  0.48388764  0.10744551    -0.70400
O978        O  0.59876772  0.97475137  0.16710540    -0.70400
O979        O  0.98325773  0.47209248  0.18700876    -0.70400
O980        O  0.55705272  0.41587726  0.17385404    -0.70300
O981        O  0.02985235  0.04122745  0.18182098    -0.70500
V982        V  0.04147570  0.48350464  0.11780186     1.35200
V983        V  0.05216041  0.47809536  0.17772145     1.35200
C984        C  0.52861088  0.06557212  0.15227985     0.78900
C985        C  0.05005177  0.39396389  0.13914369     0.79000
C986        C  0.95554035  0.47475862  0.15773261     0.78900
C987        C  0.63934639  0.47839573  0.13452602     0.78800
N988        N  0.92615869  0.33449184  0.97618802    -0.02000
C989        C  0.90302310  0.29924371  0.95898846     0.00600
C990        C  0.88537843  0.31179565  0.92288196    -0.22300
C991        C  0.88821621  0.35741417  0.92275606    -0.22500
C992        C  0.91214647  0.36976160  0.95625773     0.00500
H993        H  0.86108584  0.29243661  0.90419213     0.14300
H994        H  0.86925326  0.37924322  0.90373179     0.14300
N995        N  0.99475969  0.39448374  0.34273302    -0.02000
C996        C  0.96902700  0.37277141  0.31329614     0.00600
C997        C  0.92553907  0.35804372  0.32927679    -0.22300
C998        C  0.43629544  0.34053260  0.36802725    -0.22500
C999        C  0.97820867  0.37257208  0.37454695     0.00500
H1000       H  0.89825592  0.33828055  0.31400789     0.14300
H1001       H  0.42273259  0.31442944  0.38616345     0.14300
N1002       N  0.84430242  0.52476167  0.38220158    -0.02000
C1003       C  0.80908487  0.53123271  0.35562296     0.00600
C1004       C  0.77043361  0.55320622  0.37340232    -0.22300
C1005       C  0.78086509  0.55924340  0.41243689    -0.22500
C1006       C  0.82555283  0.54042403  0.41784940     0.00500
H1007       H  0.73636038  0.56032808  0.36006208     0.14300
H1008       H  0.75598441  0.57129552  0.43537325     0.14300
O1009       O  0.85718539  0.41300149  0.99225477    -0.70300
O1010       O  0.78783858  0.02795578  0.54641629    -0.70500
O1011       O  0.80026561  0.50553962  0.47618774    -0.70400
O1012       O  0.82113780  0.96474840  0.06276975    -0.70400
O1013       O  0.92619090  0.45897405  0.06622918    -0.70400
O1014       O  0.86671279  0.02519084  0.46498773    -0.70400
O1015       O  0.88974236  0.04794629  0.03820206    -0.70300
O1016       O  0.89783406  0.43723333  0.48972289    -0.70500
V1017       V  0.84132755  0.46528311  0.02136124     1.35200
V1018       V  0.91281020  0.48731936  0.01831876     1.35200
C1019       C  0.89944672  0.40901110  0.97858782     0.78900
C1020       C  0.85117908  0.06488453  0.05190097     0.79000
C1021       C  0.83528706  0.52155277  0.45684102     0.78900
C1022       C  0.89198840  0.44143108  0.08556212     0.78800
O1023       O  0.97451667  0.09241248  0.38947466    -0.70300
O1024       O  0.49824086  0.46004623  0.37909919    -0.70500
O1025       O  0.54907420  0.03852406  0.37054124    -0.70400
O1026       O  0.92628050  0.52027206  0.39856134    -0.70400
O1027       O  0.90226571  0.02968155  0.33104792    -0.70400
O1028       O  0.54351381  0.52967051  0.31220278    -0.70400
O1029       O  0.98171280  0.46844849  0.31861546    -0.70300
O1030       O  0.46395287  0.09361583  0.32423863    -0.70500
V1031       V  0.98271721  0.02881716  0.38149930     1.35200
V1032       V  0.97864971  0.53343635  0.32623584     1.35200
C1033       C  0.46380174  0.11407404  0.35796314     0.78900
C1034       C  0.99390697  0.44422199  0.34681162     0.79000
C1035       C  0.57335951  0.52954277  0.34012402     0.78900
C1036       C  0.89529565  0.52340774  0.37212208     0.78800
O1037       O  0.51691967  0.32204462  0.41954319    -0.70300
O1038       O  0.07946189  0.30559709  0.03322992    -0.70500
O1039       O  0.96250109  0.30070372  0.47959830    -0.70400
O1040       O  0.64035829  0.32786433  0.96957843    -0.70400
O1041       O  0.62754789  0.39851187  0.98128244    -0.70400
O1042       O  0.99364184  0.37315353  0.99986834    -0.70400
O1043       O  0.57526027  0.38006472  0.04723703    -0.70300
O1044       O  0.00725668  0.39405330  0.43681002    -0.70500
V1045       V  0.57389000  0.31766009  0.98054884     1.35200
V1046       V  0.56222297  0.38578153  0.99298153     1.35200
C1047       C  0.50299576  0.36071175  0.41056159     0.78900
C1048       C  0.58351590  0.34176164  0.05976621     0.79000
C1049       C  0.97527538  0.33572186  0.98928574     0.78900
C1050       C  0.65474140  0.36793826  0.96707668     0.78800
O1051       O  0.84214366  0.24571686  0.96713933    -0.70300
O1052       O  0.71336375  0.22198299  0.99394664    -0.70500
O1053       O  0.75773123  0.27521146  0.94342314    -0.70400
O1054       O  0.79942936  0.19384805  0.01719905    -0.70400
O1055       O  0.74883931  0.22920147  0.55636889    -0.70400
O1056       O  0.71878051  0.31138021  0.48143644    -0.70400
O1057       O  0.66652120  0.25454309  0.51919714    -0.70300
O1058       O  0.80081767  0.28762508  0.51270080    -0.70500
V1059       V  0.77798006  0.23506892  0.98137124     1.35200
V1060       V  0.73412197  0.26949509  0.51724412     1.35200
C1061       C  0.82431768  0.27326217  0.48215873     0.78900
C1062       C  0.69529984  0.23788227  0.02585375     0.79000
C1063       C  0.70961123  0.29923672  0.44659701     0.78900
C1064       C  0.81457713  0.20805743  0.05023587     0.78800
O1065       O  0.78963498  0.44791864  0.73006014    -0.70300
O1066       O  0.69470403  0.51639508  0.78798453    -0.70500
O1067       O  0.70531875  0.48980192  0.71062165    -0.70400
O1068       O  0.77901254  0.47849955  0.80567482    -0.70400
O1069       O  0.81065071  0.03867167  0.78104995    -0.70400
O1070       O  0.72996023  0.05555494  0.69600358    -0.70400
O1071       O  0.72296688  0.07730933  0.77255307    -0.70300
O1072       O  0.81532185  0.01242579  0.70451662    -0.70500
V1073       V  0.74327898  0.48390365  0.75801409     1.35200
V1074       V  0.76899230  0.04479969  0.73852046     1.35200
C1075       C  0.82468199  0.46492788  0.71138005     0.78900
C1076       C  0.70103878  0.55774830  0.79539100     0.79000
C1077       C  0.71052958  0.52565151  0.69172105     0.78900
C1078       C  0.81199283  0.50691221  0.81452691     0.78800
O1079       O  0.97007143  0.31352367  0.76532159    -0.70300
O1080       O  0.96499369  0.20257236  0.70832507    -0.70500
O1081       O  0.94330840  0.22739150  0.78307513    -0.70400
O1082       O  0.99489103  0.28716456  0.69275237    -0.70400
O1083       O  0.56779595  0.27870553  0.71399961    -0.70400
O1084       O  0.51657057  0.21342136  0.79914274    -0.70400
O1085       O  0.53756262  0.18986221  0.72374241    -0.70300
O1086       O  0.54104306  0.30243333  0.78931696    -0.70500
V1087       V  0.96984222  0.25721145  0.73787513     1.35200
V1088       V  0.53985312  0.24681714  0.75579014     1.35200
C1089       C  0.00355419  0.32474399  0.78824822     0.78900
C1090       C  0.99757424  0.17303216  0.70778783     0.79000
C1091       C  0.97046031  0.20627094  0.80602637     0.78900
C1092       C  0.04017940  0.29126720  0.68900164     0.78800
N1093       N  0.58496260  0.17216877  0.49250864    -0.02000
C1094       C  0.60299091  0.21304740  0.48444456     0.00600
C1095       C  0.60323115  0.21540439  0.44327171    -0.22300
C1096       C  0.60370700  0.17163041  0.42829156    -0.22500
C1097       C  0.59480289  0.14612542  0.46037427     0.00500
H1098       H  0.61862970  0.24251200  0.42687030     0.14300
H1099       H  0.61613500  0.16007253  0.39924958     0.14300
N1100       N  0.66423058  0.36538300  0.44344103    -0.02000
C1101       C  0.69122273  0.33425844  0.42279822     0.00600
C1102       C  0.72760125  0.35620862  0.40271943    -0.22300
C1103       C  0.72938717  0.39929738  0.41867897    -0.22500
C1104       C  0.69154757  0.40298180  0.44552970     0.00500
H1105       H  0.75647849  0.34038071  0.38548851     0.14300
H1106       H  0.75701708  0.42412213  0.41317677     0.14300
N1107       N  0.64461440  0.56384276  0.85565960    -0.02000
C1108       C  0.67050818  0.58340864  0.82581646     0.00600
C1109       C  0.69041206  0.62334088  0.84053851    -0.22300
C1110       C  0.68241041  0.62555324  0.88048618    -0.22500
C1111       C  0.65549678  0.58836603  0.88959197     0.00500
H1112       H  0.71637318  0.64412412  0.82548937     0.14300
H1113       H  0.69975835  0.64867422  0.90117957     0.14300
O1114       O  0.62319153  0.54978278  0.94680528    -0.70300
O1115       O  0.60800063  0.02187110  0.53433937    -0.70500
O1116       O  0.62312362  0.07466597  0.01747528    -0.70400
O1117       O  0.64345023  0.44897613  0.48906039    -0.70400
O1118       O  0.72794099  0.48775671  0.95858150    -0.70400
O1119       O  0.65524537  0.09293381  0.46624326    -0.70400
O1120       O  0.69484585  0.53839978  0.52906551    -0.70300
O1121       O  0.68573855  0.03825172  0.92814377    -0.70500
V1122       V  0.63641914  0.51343588  0.99073868     1.35200
V1123       V  0.68403853  0.53262162  0.47325128     1.35200
C1124       C  0.65793411  0.56966058  0.92995390     0.78900
C1125       C  0.66063792  0.53068848  0.55346383     0.79000
C1126       C  0.61086819  0.10064256  0.46509357     0.78900
C1127       C  0.68304422  0.44278168  0.47124974     0.78800
N1128       N  0.66158510  0.51477533  0.62804739    -0.02000
C1129       C  0.67958475  0.54054003  0.65874925     0.00600
C1130       C  0.68325686  0.58483612  0.64823694    -0.22300
C1131       C  0.67561396  0.58562664  0.60874597    -0.22500
C1132       C  0.66578509  0.54230200  0.59644473     0.00500
H1133       H  0.69666143  0.61272972  0.66630501     0.14300
H1134       H  0.67902490  0.61433513  0.59039846     0.14300
N1135       N  0.82021023  0.13245919  0.55761839    -0.02000
C1136       C  0.78782853  0.16225700  0.57165573     0.00600
C1137       C  0.76195944  0.14525485  0.60267996    -0.22300
C1138       C  0.77781879  0.10168496  0.60576646    -0.22500
C1139       C  0.81315848  0.09493927  0.57714060     0.00500
H1140       H  0.73062276  0.16031321  0.61712724     0.14300
H1141       H  0.76179806  0.07605300  0.62335206     0.14300
N1142       N  0.47597906  0.16210871  0.86733930    -0.02000
C1143       C  0.45156903  0.18815310  0.84107948     0.00600
C1144       C  0.41726668  0.21375004  0.86123169    -0.22300
C1145       C  0.92398771  0.20648966  0.90165193    -0.22500
C1146       C  0.46158149  0.17932870  0.90386590     0.00500
H1147       H  0.39437016  0.23900588  0.84938207     0.14300
H1148       H  0.90572371  0.22247249  0.92499306     0.14300
O1149       O  0.98555497  0.20415301  0.96956800    -0.70300
O1150       O  0.45523489  0.17717885  0.57680073    -0.70500
O1151       O  0.55901061  0.20634512  0.02167754    -0.70400
O1152       O  0.88136669  0.18083433  0.53872792    -0.70400
O1153       O  0.93375898  0.11760465  0.02366656    -0.70400
O1154       O  0.51821211  0.12704225  0.50374396    -0.70400
O1155       O  0.95618634  0.10162090  0.56448746    -0.70300
O1156       O  0.48807110  0.13316892  0.95640118    -0.70500
V1157       V  0.49155254  0.19427684  0.02420687     1.35200
V1158       V  0.45171525  0.11897191  0.50834939     1.35200
C1159       C  0.48058666  0.17184778  0.94422087     0.78900
C1160       C  0.45919185  0.13720411  0.58810349     0.79000
C1161       C  0.53628132  0.16605463  0.50538619     0.78900
C1162       C  0.86205961  0.14284208  0.53426465     0.78800
N1163       N  0.49578609  0.11544537  0.65275093    -0.02000
C1164       C  0.48273253  0.13314985  0.68962279     0.00600
C1165       C  0.43238594  0.13060109  0.69186677    -0.22300
C1166       C  0.41701975  0.13245809  0.65379407    -0.22500
C1167       C  0.45785103  0.12737957  0.63060413     0.00500
H1168       H  0.41021342  0.14203080  0.71688407     0.14300
H1169       H  0.38136613  0.14133275  0.64449513     0.14300
N1170       N  0.04812026  0.33541779  0.62563629    -0.02000
C1171       C  0.06389158  0.30523336  0.65211067     0.00600
C1172       C  0.09037194  0.27132713  0.63321720    -0.22300
C1173       C  0.08751371  0.27711780  0.59411879    -0.22500
C1174       C  0.06165761  0.31574230  0.58966151     0.00500
H1175       H  0.10360750  0.24118759  0.64605947     0.14300
H1176       H  0.09974134  0.25347711  0.57120642     0.14300
N1177       N  0.88165498  0.44803380  0.65392353    -0.02000
C1178       C  0.85644827  0.43400769  0.68614041     0.00600
C1179       C  0.83477373  0.39289524  0.67628088    -0.22300
C1180       C  0.83736856  0.38722640  0.63616566    -0.22500
C1181       C  0.86464582  0.42233647  0.62317282     0.00500
H1182       H  0.80944884  0.37478972  0.69443456     0.14300
H1183       H  0.81639060  0.36372545  0.61835658     0.14300
O1184       O  0.50661014  0.04595809  0.61526749    -0.70300
O1185       O  0.02538395  0.40842555  0.60613342    -0.70500
O1186       O  0.94352775  0.97382602  0.61502490    -0.70400
O1187       O  0.58850609  0.48465388  0.60530554    -0.70400
O1188       O  0.58593827  0.99028415  0.66473041    -0.70400
O1189       O  0.96030872  0.45531963  0.68226107    -0.70400
O1190       O  0.54214844  0.41028619  0.66784692    -0.70300
O1191       O  0.00935964  0.03485172  0.67912650    -0.70500
V1192       V  0.02068861  0.47249717  0.61469166     1.35200
V1193       V  0.02875393  0.46702386  0.67485453     1.35200
C1194       C  0.50554249  0.06667689  0.64882716     0.78900
C1195       C  0.03659740  0.38331231  0.63373967     0.79000
C1196       C  0.93302306  0.45877663  0.65289084     0.78900
C1197       C  0.61578125  0.49221129  0.63407693     0.78800
N1198       N  0.88543786  0.33427076  0.48162253    -0.02000
C1199       C  0.86285689  0.29918925  0.46302374     0.00600
C1200       C  0.84668038  0.31225795  0.42663072    -0.22300
C1201       C  0.84956007  0.35758000  0.42678557    -0.22500
C1202       C  0.87240423  0.36960958  0.46072905     0.00500
H1203       H  0.82416498  0.29294480  0.40643394     0.14300
H1204       H  0.83275860  0.37947519  0.40654127     0.14300
N1205       N  0.02166328  0.38433167  0.84428540    -0.02000
C1206       C  0.99041045  0.36052954  0.81977065     0.00600
C1207       C  0.95739868  0.33767863  0.84274690    -0.22300
C1208       C  0.48046521  0.33423187  0.87861354    -0.22500
C1209       C  0.01871401  0.35973249  0.87741401     0.00500
H1210       H  0.92895578  0.31527604  0.83247629     0.14300
H1211       H  0.47197417  0.30896206  0.89948548     0.14300
N1212       N  0.86144190  0.51352147  0.87916830    -0.02000
C1213       C  0.82159509  0.51826370  0.85634844     0.00600
C1214       C  0.78514454  0.53938332  0.87788975    -0.22300
C1215       C  0.80168561  0.54781266  0.91475821    -0.22500
C1216       C  0.84687151  0.52972625  0.91600965     0.00500
H1217       H  0.74960909  0.54712230  0.86789266     0.14300
H1218       H  0.78149442  0.56146582  0.93980523     0.14300
O1219       O  0.82109924  0.42158586  0.49037900    -0.70300
O1220       O  0.81158229  0.04762706  0.04241628    -0.70500
O1221       O  0.82795906  0.49187344  0.97357259    -0.70400
O1222       O  0.80964433  0.94434894  0.56094617    -0.70400
O1223       O  0.89385703  0.45872713  0.56650481    -0.70400
O1224       O  0.87936940  0.03042670  0.95919030    -0.70400
O1225       O  0.86449207  0.04263011  0.54536463    -0.70300
O1226       O  0.93123193  0.43712255  0.98785865    -0.70500
V1227       V  0.81040099  0.47304060  0.52211122     1.35200
V1228       V  0.88363316  0.48924507  0.51992744     1.35200
C1229       C  0.86356379  0.41180614  0.48012273     0.78900
C1230       C  0.82250656  0.05234798  0.55721841     0.79000
C1231       C  0.86045426  0.51173898  0.95435906     0.78900
C1232       C  0.85917114  0.43985963  0.58372659     0.78800
O1233       O  0.99101257  0.08564717  0.88971273    -0.70300
O1234       O  0.52175555  0.45744983  0.88391292    -0.70500
O1235       O  0.56152933  0.02451002  0.87475812    -0.70400
O1236       O  0.94174909  0.50705466  0.89616166    -0.70400
O1237       O  0.91422855  0.02263661  0.82708212    -0.70400
O1238       O  0.57177289  0.53895861  0.82212150    -0.70400
O1239       O  0.01050715  0.45875623  0.81931827    -0.70300
O1240       O  0.47724952  0.09399362  0.82744442    -0.70500
V1241       V  0.99213292  0.02119440  0.88096242     1.35200
V1242       V  0.99913867  0.52344226  0.82760323     1.35200
C1243       C  0.48421141  0.11362262  0.86070592     0.78900
C1244       C  0.01839739  0.43417645  0.84847869     0.79000
C1245       C  0.59709803  0.54247943  0.85321720     0.78900
C1246       C  0.91233951  0.50896684  0.86861521     0.78800
O1247       O  0.56208632  0.32509906  0.92660630    -0.70300
O1248       O  0.04395544  0.29599424  0.52290688    -0.70500
O1249       O  0.00321640  0.30273082  0.98336294    -0.70400
O1250       O  0.59866518  0.31888897  0.46053883    -0.70400
O1251       O  0.58892725  0.39020734  0.47041760    -0.70400
O1252       O  0.95766232  0.37026839  0.50043460    -0.70400
O1253       O  0.54373112  0.37258693  0.53960910    -0.70300
O1254       O  0.04691697  0.39346455  0.93735527    -0.70500
V1255       V  0.53184518  0.31186032  0.47273414     1.35200
V1256       V  0.52431029  0.38001763  0.48715534     1.35200
C1257       C  0.54781788  0.36264010  0.91526482     0.78900
C1258       C  0.55075647  0.33360815  0.55090355     0.79000
C1259       C  0.93648018  0.33398308  0.48995233     0.78900
C1260       C  0.61615666  0.35791037  0.45956057     0.78800
O1261       O  0.80188628  0.74171561  0.46237320    -0.70300
O1262       O  0.68351760  0.69335175  0.48747793    -0.70500
O1263       O  0.71177254  0.75741029  0.43987497    -0.70400
O1264       O  0.77149176  0.68143744  0.51080223    -0.70400
O1265       O  0.78812534  0.72751595  0.06601739    -0.70400
O1266       O  0.72598487  0.81214663  0.00895796    -0.70400
O1267       O  0.69728655  0.75326462  0.06278409    -0.70300
O1268       O  0.81464819  0.78462790  0.01097768    -0.70500
V1269       V  0.74203267  0.71926139  0.47619214     1.35200
V1270       V  0.75651943  0.76875901  0.03648494     1.35200
C1271       C  0.81769095  0.77543811  0.97430175     0.78900
C1272       C  0.65240846  0.71621349  0.50634483     0.79000
C1273       C  0.69327817  0.79897263  0.98620316     0.78900
C1274       C  0.77091904  0.69148044  0.54727394     0.78800
O1275       O  0.82283864  0.94828818  0.23683225    -0.70300
O1276       O  0.69735042  0.95481635  0.27686983    -0.70500
O1277       O  0.73484591  0.92885497  0.20831039    -0.70400
O1278       O  0.78382999  0.97753407  0.30590868    -0.70400
O1279       O  0.80175564  0.53293601  0.28641592    -0.70400
O1280       O  0.73261774  0.49217374  0.19662372    -0.70400
O1281       O  0.70624940  0.52143796  0.27009846    -0.70300
O1282       O  0.82782840  0.49826288  0.21192780    -0.70500
V1283       V  0.75981303  0.95357739  0.25682202     1.35200
V1284       V  0.76765389  0.51058642  0.24171863     1.35200
C1285       C  0.83416434  0.97153181  0.20810958     0.78900
C1286       C  0.67336178  0.99058257  0.27929757     0.79000
C1287       C  0.71403553  0.95517768  0.18555904     0.78900
C1288       C  0.79411696  0.01903952  0.30905266     0.78800
O1289       O  0.94819783  0.81293602  0.26215323    -0.70300
O1290       O  0.96968581  0.70197292  0.20798432    -0.70500
O1291       O  0.93814317  0.72461956  0.28099486    -0.70400
O1292       O  0.98109997  0.78981334  0.19049886    -0.70400
O1293       O  0.55632764  0.78545866  0.21394434    -0.70400
O1294       O  0.51082318  0.72047973  0.30385897    -0.70400
O1295       O  0.54314018  0.69535886  0.23101345    -0.70300
O1296       O  0.52139938  0.81103061  0.28781660    -0.70500
V1297       V  0.96094697  0.75722107  0.23598309     1.35200
V1298       V  0.53200212  0.75353827  0.25848915     1.35200
C1299       C  0.97884732  0.83263182  0.28381575     0.78900
C1300       C  0.00698012  0.67836891  0.21169607     0.79000
C1301       C  0.96673109  0.71194352  0.30738899     0.78900
C1302       C  0.02520192  0.80003641  0.18614413     0.78800
N1303       N  0.61698762  0.66067140  0.05129364    -0.02000
C1304       C  0.63797953  0.69499377  0.07208047     0.00600
C1305       C  0.65465062  0.67855719  0.10693035    -0.22300
C1306       C  0.65378014  0.63245555  0.10238478    -0.22500
C1307       C  0.63153779  0.62279137  0.06718675     0.00500
H1308       H  0.67784616  0.69655752  0.12746417     0.14300
H1309       H  0.67427882  0.60943732  0.11924307     0.14300
N1310       N  0.63765571  0.85581738  0.96316037    -0.02000
C1311       C  0.64879353  0.82450316  0.98931073     0.00600
C1312       C  0.64144037  0.84289730  0.02714302    -0.22300
C1313       C  0.64629751  0.88761707  0.02267532    -0.22500
C1314       C  0.65254841  0.89354655  0.98266209     0.00500
H1315       H  0.64633013  0.82694743  0.05479572     0.14300
H1316       H  0.64243164  0.91178032  0.04619285     0.14300
N1317       N  0.61559547  0.01659006  0.33087986    -0.02000
C1318       C  0.62511139  0.98833489  0.29932720     0.00600
C1319       C  0.61457644  0.94468756  0.31058435    -0.22300
C1320       C  0.62178845  0.94570170  0.35032970    -0.22500
C1321       C  0.62855597  0.99041715  0.36067245     0.00500
H1322       H  0.61752280  0.91427446  0.29212856     0.14300
H1323       H  0.62421169  0.91729460  0.36902422     0.14300
O1324       O  0.59810423  0.99769879  0.42513212    -0.70300
O1325       O  0.64809105  0.47528809  0.03401923    -0.70500
O1326       O  0.58721995  0.56204237  0.47760787    -0.70400
O1327       O  0.61683601  0.96128413  0.96808151    -0.70400
O1328       O  0.69921249  0.97475058  0.46990151    -0.70400
O1329       O  0.68923349  0.58460163  0.02717204    -0.70400
O1330       O  0.70966530  0.00380536  0.03171753    -0.70300
O1331       O  0.67464104  0.52688925  0.41779750    -0.70500
V1332       V  0.60496658  0.01121597  0.47900125     1.35200
V1333       V  0.69569691  0.02086404  0.98037416     1.35200
C1334       C  0.63214729  0.00598905  0.40159386     0.78900
C1335       C  0.67596638  0.98982995  0.05331827     0.79000
C1336       C  0.64650896  0.58607453  0.04069219     0.78900
C1337       C  0.65472989  0.93844414  0.96697722     0.78800
N1338       N  0.66855509  0.96760287  0.12526377    -0.02000
C1339       C  0.69530936  0.94006187  0.14720028     0.00600
C1340       C  0.72644746  0.91519080  0.12300390    -0.22300
C1341       C  0.72346102  0.93166968  0.08617856    -0.22500
C1342       C  0.68870820  0.96461335  0.08843014     0.00500
H1343       H  0.75288104  0.89158681  0.13219958     0.14300
H1344       H  0.74393177  0.92036244  0.06025285     0.14300
N1345       N  0.85030188  0.62669475  0.05612351    -0.02000
C1346       C  0.81919969  0.65665016  0.07197735     0.00600
C1347       C  0.79221444  0.63883686  0.10223768    -0.22300
C1348       C  0.80614582  0.59503815  0.10409630    -0.22500
C1349       C  0.84180294  0.58893218  0.07563286     0.00500
H1350       H  0.76114737  0.65388927  0.11718780     0.14300
H1351       H  0.78893980  0.56949778  0.12130273     0.14300
N1352       N  0.45926113  0.66116484  0.37219997    -0.02000
C1353       C  0.44477095  0.69220261  0.34489660     0.00600
C1354       C  0.41408922  0.72320855  0.36293821    -0.22300
C1355       C  0.91615391  0.72040177  0.40407107    -0.22500
C1356       C  0.43913342  0.67769280  0.40780650     0.00500
H1357       H  0.39885356  0.75234433  0.34988324     0.14300
H1358       H  0.89817093  0.74026158  0.42674667     0.14300
O1359       O  0.94291748  0.69778270  0.48013478    -0.70300
O1360       O  0.48217487  0.67245965  0.08516236    -0.70500
O1361       O  0.51375846  0.69149092  0.52626392    -0.70400
O1362       O  0.91186252  0.67662731  0.03888678    -0.70400
O1363       O  0.88743061  0.60983667  0.51637036    -0.70400
O1364       O  0.55622308  0.62527826  0.01425882    -0.70400
O1365       O  0.98854696  0.59997179  0.06994243    -0.70300
O1366       O  0.45207149  0.62537646  0.46092712    -0.70500
V1367       V  0.44765506  0.68220361  0.53232054     1.35200
V1368       V  0.48857684  0.61739810  0.01457755     1.35200
C1369       C  0.44482102  0.66489604  0.45033496     0.78900
C1370       C  0.48774826  0.63224044  0.09499828     0.79000
C1371       C  0.57334480  0.66158687  0.02890191     0.78900
C1372       C  0.89400167  0.63779317  0.03480232     0.78800
N1373       N  0.52437669  0.61543513  0.16008164    -0.02000
C1374       C  0.50548156  0.62922491  0.19621781     0.00600
C1375       C  0.45695206  0.61621789  0.19655454    -0.22300
C1376       C  0.44337807  0.61599031  0.15786880    -0.22500
C1377       C  0.48568653  0.62048535  0.13670070     0.00500
H1378       H  0.43154590  0.62255434  0.22075396     0.14300
H1379       H  0.40705437  0.61790168  0.14708877     0.14300
N1380       N  0.02736647  0.84467287  0.12125047    -0.02000
C1381       C  0.04553641  0.81456593  0.14731912     0.00600
C1382       C  0.07093908  0.78103155  0.12699402    -0.22300
C1383       C  0.06538481  0.78703497  0.08803464    -0.22500
C1384       C  0.03816689  0.82498132  0.08453735     0.00500
H1385       H  0.08611059  0.75130445  0.13915469     0.14300
H1386       H  0.07796224  0.76464376  0.06432232     0.14300
N1387       N  0.88321495  0.96741439  0.14444242    -0.02000
C1388       C  0.86273233  0.94795364  0.17615171     0.00600
C1389       C  0.84604522  0.90530945  0.16516359    -0.22300
C1390       C  0.84980739  0.90088995  0.12510647    -0.22500
C1391       C  0.87071997  0.93983126  0.11312128     0.00500
H1392       H  0.82447103  0.88342673  0.18315274     0.14300
H1393       H  0.83357690  0.87482528  0.10656064     0.14300
O1394       O  0.54446131  0.54922732  0.12208138    -0.70300
O1395       O  0.01992919  0.92065129  0.10133949    -0.70500
O1396       O  0.97445100  0.48514207  0.12546821    -0.70400
O1397       O  0.59028702  0.98016294  0.10439780    -0.70400
O1398       O  0.62320025  0.48125552  0.16991165    -0.70400
O1399       O  0.95840748  0.97691957  0.17628510    -0.70400
O1400       O  0.52961673  0.90964674  0.16452839    -0.70300
O1401       O  0.04713231  0.54283162  0.18607079    -0.70500
V1402       V  0.02358874  0.98496346  0.11136333     1.35200
V1403       V  0.02768072  0.97638187  0.17158737     1.35200
C1404       C  0.54322614  0.56937379  0.15570593     0.78900
C1405       C  0.02277642  0.89359344  0.12923026     0.79000
C1406       C  0.93354051  0.98029590  0.14545767     0.78900
C1407       C  0.61786025  0.97593768  0.13289742     0.78800
N1408       N  0.86100265  0.84374965  0.96590872    -0.02000
C1409       C  0.83873442  0.80814148  0.94898649     0.00600
C1410       C  0.80988180  0.82231009  0.91892628    -0.22300
C1411       C  0.81149606  0.86834099  0.92030195    -0.22500
C1412       C  0.84427792  0.88008393  0.94867766     0.00500
H1413       H  0.78292403  0.80249012  0.90342998     0.14300
H1414       H  0.78838905  0.89058552  0.90488628     0.14300
N1415       N  0.98697308  0.89388393  0.33892347    -0.02000
C1416       C  0.96061674  0.87213711  0.30983054     0.00600
C1417       C  0.91708541  0.85843112  0.32650521    -0.22300
C1418       C  0.42704053  0.85007560  0.36704506    -0.22500
C1419       C  0.97090407  0.87227743  0.37114664     0.00500
H1420       H  0.88892643  0.83928234  0.31179317     0.14300
H1421       H  0.40886981  0.82725842  0.38588134     0.14300
N1422       N  0.83490420  0.03033086  0.37510111    -0.02000
C1423       C  0.80179367  0.04147568  0.34811241     0.00600
C1424       C  0.76445371  0.06528841  0.36621232    -0.22300
C1425       C  0.77353733  0.06767733  0.40570898    -0.22500
C1426       C  0.81640574  0.04553232  0.41092875     0.00500
H1427       H  0.73133164  0.07523133  0.35276879     0.14300
H1428       H  0.74884287  0.07998445  0.42868574     0.14300
O1429       O  0.80888335  0.93728741  0.98702614    -0.70300
O1430       O  0.79609397  0.52389249  0.55460781    -0.70500
O1431       O  0.79073039  0.00828244  0.46808047    -0.70400
O1432       O  0.85155286  0.43747074  0.06953375    -0.70400
O1433       O  0.89804410  0.96267664  0.04998597    -0.70400
O1434       O  0.87661995  0.52015541  0.47175420    -0.70400
O1435       O  0.89766338  0.53847766  0.04880294    -0.70300
O1436       O  0.88758886  0.94137540  0.47955973    -0.70500
V1437       V  0.81230431  0.99269571  0.01437008     1.35200
V1438       V  0.88664941  0.99642053  0.00487375     1.35200
C1439       C  0.84580040  0.92328172  0.96862516     0.78900
C1440       C  0.85477157  0.54591100  0.05884772     0.79000
C1441       C  0.82561914  0.02569970  0.44954606     0.78900
C1442       C  0.86321954  0.95580853  0.07343067     0.78800
O1443       O  0.98372696  0.59327657  0.39411032    -0.70300
O1444       O  0.49514732  0.96265090  0.37624040    -0.70500
O1445       O  0.55599426  0.53383457  0.37481320    -0.70400
O1446       O  0.91584200  0.02068357  0.39285151    -0.70400
O1447       O  0.91052972  0.52958122  0.33717157    -0.70400
O1448       O  0.53670973  0.03101655  0.30801093    -0.70400
O1449       O  0.97373149  0.96759778  0.31427870    -0.70300
O1450       O  0.47204901  0.59405947  0.33049049    -0.70500
V1451       V  0.99259771  0.52954201  0.38578218     1.35200
V1452       V  0.97061123  0.03262535  0.32161244     1.35200
C1453       C  0.47286698  0.61357373  0.36467574     0.78900
C1454       C  0.98521830  0.94355606  0.34282473     0.79000
C1455       C  0.56628002  0.03258736  0.33608334     0.78900
C1456       C  0.88580889  0.02502580  0.36583869     0.78800
O1457       O  0.50391471  0.82258272  0.42051778    -0.70300
O1458       O  0.01638092  0.80309759  0.01851844    -0.70500
O1459       O  0.94930190  0.80343964  0.47725673    -0.70400
O1460       O  0.56562194  0.81678636  0.95337408    -0.70400
O1461       O  0.56040915  0.88782499  0.96936924    -0.70400
O1462       O  0.92833198  0.87819560  0.99385433    -0.70400
O1463       O  0.50992016  0.87048501  0.03590352    -0.70300
O1464       O  0.00224371  0.89414388  0.43310080    -0.70500
V1465       V  0.49975978  0.81167939  0.96632434     1.35200
V1466       V  0.49470753  0.87978661  0.98232374     1.35200
C1467       C  0.49512769  0.86237636  0.41076406     0.78900
C1468       C  0.51895342  0.83139349  0.04609113     0.79000
C1469       C  0.90683258  0.84214412  0.98433362     0.78900
C1470       C  0.58612146  0.85434521  0.95814040     0.78800
O1471       O  0.79094847  0.74555526  0.95933754    -0.70300
O1472       O  0.69367512  0.69630886  0.02078934    -0.70500
O1473       O  0.69555280  0.75975184  0.97068962    -0.70400
O1474       O  0.78796706  0.68277078  0.01356108    -0.70400
O1475       O  0.75262686  0.72788504  0.55976073    -0.70400
O1476       O  0.71037904  0.80878104  0.48726970    -0.70400
O1477       O  0.66601904  0.74926672  0.52804347    -0.70300
O1478       O  0.79674439  0.78888964  0.51289024    -0.70500
V1479       V  0.74291063  0.72153493  0.99145981     1.35200
V1480       V  0.73205834  0.76751857  0.52175917     1.35200
C1481       C  0.81837123  0.77505728  0.48126482     0.78900
C1482       C  0.67643936  0.71751747  0.05056686     0.79000
C1483       C  0.70076838  0.79672022  0.45248863     0.78900
C1484       C  0.79944028  0.69097219  0.04912830     0.78800
O1485       O  0.78008890  0.95154369  0.72283113    -0.70300
O1486       O  0.68133971  0.01610396  0.77814914    -0.70500
O1487       O  0.69498987  0.99098693  0.70197224    -0.70400
O1488       O  0.76662612  0.98212058  0.79803249    -0.70400
O1489       O  0.82328994  0.53521521  0.78952072    -0.70400
O1490       O  0.74377963  0.55217857  0.70245569    -0.70400
O1491       O  0.73781314  0.57608356  0.77925412    -0.70300
O1492       O  0.82811750  0.50753435  0.71276584    -0.70500
V1493       V  0.73194829  0.98585283  0.74970894     1.35200
V1494       V  0.78239523  0.54151290  0.74599391     1.35200
C1495       C  0.81383971  0.96966777  0.70364082     0.78900
C1496       C  0.68587436  0.05729327  0.78668646     0.79000
C1497       C  0.69804822  0.02813996  0.68477353     0.78900
C1498       C  0.79892700  0.01135506  0.80659198     0.78800
O1499       O  0.94333469  0.80164452  0.76780082    -0.70300
O1500       O  0.95941304  0.69483646  0.70781441    -0.70500
O1501       O  0.93268802  0.71242374  0.78335649    -0.70400
O1502       O  0.97436974  0.78316280  0.69485514    -0.70400
O1503       O  0.55501895  0.77769421  0.71535317    -0.70400
O1504       O  0.50933115  0.71707405  0.80519759    -0.70400
O1505       O  0.53531521  0.68789865  0.73239171    -0.70300
O1506       O  0.52255823  0.80731675  0.78666123    -0.70500
V1507       V  0.95398260  0.74779528  0.73912082     1.35200
V1508       V  0.52977308  0.74779220  0.75931810     1.35200
C1509       C  0.97661059  0.82305168  0.78496440     0.78900
C1510       C  0.99398791  0.66819196  0.71133842     0.79000
C1511       C  0.96248804  0.69962186  0.80900937     0.78900
C1512       C  0.01922295  0.79042501  0.68974407     0.78800
N1513       N  0.58759641  0.66451825  0.50352688    -0.02000
C1514       C  0.60262077  0.70629519  0.49542013     0.00600
C1515       C  0.59856476  0.71015170  0.45460433    -0.22300
C1516       C  0.59905215  0.66692327  0.43837689    -0.22500
C1517       C  0.59492107  0.63999796  0.47010042     0.00500
H1518       H  0.61132328  0.73828813  0.43815383     0.14300
H1519       H  0.60891893  0.65680819  0.40835206     0.14300
N1520       N  0.65382505  0.86263456  0.44942455    -0.02000
C1521       C  0.68066906  0.83131736  0.42892460     0.00600
C1522       C  0.71520057  0.85317084  0.40687966    -0.22300
C1523       C  0.71593888  0.89712649  0.42070840    -0.22500
C1524       C  0.67903175  0.90146172  0.44834679     0.00500
H1525       H  0.74301475  0.83739456  0.38851669     0.14300
H1526       H  0.74162380  0.92267198  0.41246501     0.14300
N1527       N  0.62946783  0.05494356  0.84519172    -0.02000
C1528       C  0.65261332  0.07941888  0.81700494     0.00600
C1529       C  0.66963704  0.11907219  0.83471371    -0.22300
C1530       C  0.66405188  0.11553553  0.87473988    -0.22500
C1531       C  0.64097416  0.07531934  0.88049915     0.00500
H1532       H  0.69341639  0.14309586  0.82114853     0.14300
H1533       H  0.68066411  0.13702614  0.89709937     0.14300
O1534       O  0.60977633  0.04639244  0.94225203    -0.70300
O1535       O  0.62094473  0.51759932  0.53959188    -0.70500
O1536       O  0.61605713  0.55824229  0.02771563    -0.70400
O1537       O  0.62713955  0.95274124  0.48356424    -0.70400
O1538       O  0.69483187  0.95874379  0.96516315    -0.70400
O1539       O  0.65924724  0.59081734  0.47337280    -0.70400
O1540       O  0.68273703  0.04156882  0.52592793    -0.70300
O1541       O  0.69755104  0.57129579  0.94752991    -0.70500
V1542       V  0.62187576  0.01890406  0.99162205     1.35200
V1543       V  0.67552079  0.03344663  0.47000031     1.35200
C1544       C  0.64491067  0.05162323  0.91823945     0.78900
C1545       C  0.64722911  0.03444997  0.54915929     0.79000
C1546       C  0.61434097  0.59548853  0.47239293     0.78900
C1547       C  0.66865651  0.94369791  0.47035846     0.78800
N1548       N  0.64801509  0.01789025  0.62286913    -0.02000
C1549       C  0.66632182  0.04352699  0.65317259     0.00600
C1550       C  0.66915923  0.08814786  0.64333343    -0.22300
C1551       C  0.66028003  0.08948188  0.60419346    -0.22500
C1552       C  0.65032978  0.04619181  0.59185482     0.00500
H1553       H  0.68318313  0.11581659  0.66134072     0.14300
H1554       H  0.66378468  0.11830710  0.58598180     0.14300
N1555       N  0.82183176  0.62919179  0.55772029    -0.02000
C1556       C  0.79150589  0.66001237  0.57309357     0.00600
C1557       C  0.77073128  0.64587691  0.60760592    -0.22300
C1558       C  0.78817052  0.60296829  0.61213533    -0.22500
C1559       C  0.81918150  0.59401457  0.58073635     0.00500
H1560       H  0.74214535  0.66241499  0.62462404     0.14300
H1561       H  0.77687991  0.57942047  0.63375331     0.14300
N1562       N  0.47279253  0.65723094  0.87195627    -0.02000
C1563       C  0.44775751  0.68206356  0.84487025     0.00600
C1564       C  0.41530452  0.71012752  0.86489786    -0.22300
C1565       C  0.92462823  0.70802095  0.90692636    -0.22500
C1566       C  0.45911952  0.67638199  0.90828065     0.00500
H1567       H  0.39325641  0.73554978  0.85227450     0.14300
H1568       H  0.90914885  0.72926422  0.93045545     0.14300
O1569       O  0.97209745  0.69622806  0.97801006    -0.70300
O1570       O  0.45618272  0.67001404  0.58680388    -0.70500
O1571       O  0.54642322  0.69554702  0.03076959    -0.70400
O1572       O  0.88346480  0.67759678  0.54160929    -0.70400
O1573       O  0.91956320  0.60764936  0.01771934    -0.70400
O1574       O  0.52096900  0.61947437  0.51501517    -0.70400
O1575       O  0.95608646  0.59613940  0.56876517    -0.70300
O1576       O  0.48477753  0.62833940  0.95980976    -0.70500
V1577       V  0.47891950  0.68504062  0.03047655     1.35200
V1578       V  0.45396743  0.61421309  0.51650191     1.35200
C1579       C  0.47515597  0.66722814  0.94921938     0.78900
C1580       C  0.45840175  0.62953762  0.59697065     0.79000
C1581       C  0.53991523  0.65810981  0.51784815     0.78900
C1582       C  0.86401069  0.63998879  0.53537933     0.78800
N1583       N  0.50082786  0.61020248  0.65908106    -0.02000
C1584       C  0.48946017  0.62616086  0.69665676     0.00600
C1585       C  0.43972659  0.61910965  0.70152569    -0.22300
C1586       C  0.42081139  0.61954914  0.66431915    -0.22500
C1587       C  0.46007027  0.61833634  0.63903473     0.00500
H1588       H  0.41868190  0.62874099  0.72770288     0.14300
H1589       H  0.38366531  0.62546224  0.65705930     0.14300
N1590       N  0.02836676  0.83606208  0.62508629    -0.02000
C1591       C  0.04142884  0.80430928  0.65169784     0.00600
C1592       C  0.06662134  0.76947397  0.63291503    -0.22300
C1593       C  0.06619831  0.77614023  0.59403452    -0.22500
C1594       C  0.04230315  0.81576150  0.58936106     0.00500
H1595       H  0.07839290  0.73875257  0.64569076     0.14300
H1596       H  0.07940891  0.75281762  0.57116638     0.14300
N1597       N  0.87147075  0.95373221  0.64662108    -0.02000
C1598       C  0.84614314  0.93939876  0.67852342     0.00600
C1599       C  0.82611286  0.89751752  0.66889507    -0.22300
C1600       C  0.83022638  0.89101167  0.62892236    -0.22500
C1601       C  0.85651673  0.92670373  0.61585407     0.00500
H1602       H  0.80102475  0.87895706  0.68689338     0.14300
H1603       H  0.81068797  0.86644168  0.61106719     0.14300
O1604       O  0.51702975  0.54367588  0.61985298    -0.70300
O1605       O  0.01246863  0.91046516  0.60359464    -0.70500
O1606       O  0.95304668  0.46793592  0.62050435    -0.70400
O1607       O  0.57601298  0.98457815  0.60163844    -0.70400
O1608       O  0.59811180  0.48694600  0.66842592    -0.70400
O1609       O  0.94885115  0.96120953  0.67703271    -0.70400
O1610       O  0.52937051  0.91349773  0.66738027    -0.70300
O1611       O  0.01729978  0.53089951  0.68372711    -0.70500
V1612       V  0.01124278  0.97531670  0.61055605     1.35200
V1613       V  0.01792720  0.97050243  0.67088869     1.35200
C1614       C  0.51500094  0.56289208  0.65390456     0.78900
C1615       C  0.02120302  0.88522053  0.63195263     0.79000
C1616       C  0.92257120  0.96487603  0.64697565     0.78900
C1617       C  0.60321505  0.99417436  0.62998943     0.78800
N1618       N  0.87414692  0.83900920  0.47560015    -0.02000
C1619       C  0.85154696  0.80301968  0.45914299     0.00600
C1620       C  0.83302620  0.81353300  0.42293102    -0.22300
C1621       C  0.83660256  0.85874720  0.42048781    -0.22500
C1622       C  0.86157793  0.87289658  0.45295660     0.00500
H1623       H  0.80999038  0.79251221  0.40453182     0.14300
H1624       H  0.81908036  0.87938668  0.39963086     0.14300
N1625       N  0.98489206  0.88834547  0.83604159    -0.02000
C1626       C  0.96274732  0.86917101  0.80368414     0.00600
C1627       C  0.91317807  0.86979185  0.81167540    -0.22300
C1628       C  0.41449910  0.86631161  0.85330840    -0.22500
C1629       C  0.95510476  0.87370923  0.86483051     0.00500
H1630       H  0.88513631  0.85778369  0.79212624     0.14300
H1631       H  0.38474853  0.85266595  0.86956071     0.14300
N1632       N  0.84492821  0.02799461  0.87127690    -0.02000
C1633       C  0.80554297  0.02628502  0.84773611     0.00600
C1634       C  0.76816990  0.04977717  0.86545714    -0.22300
C1635       C  0.78322104  0.06628997  0.90083116    -0.22500
C1636       C  0.82844338  0.04915341  0.90571519     0.00500
H1637       H  0.73307057  0.05380071  0.85376746     0.14300
H1638       H  0.76092253  0.08331327  0.92319942     0.14300
O1639       O  0.81117371  0.92470928  0.48341704    -0.70300
O1640       O  0.82268587  0.51756614  0.05009552    -0.70500
O1641       O  0.80219413  0.02074388  0.96640805    -0.70400
O1642       O  0.81839439  0.43969293  0.56786589    -0.70400
O1643       O  0.88604171  0.95983517  0.55744779    -0.70400
O1644       O  0.90146427  0.51657493  0.96981456    -0.70400
O1645       O  0.87205881  0.54115906  0.55155333    -0.70300
O1646       O  0.88478381  0.94481481  0.97145562    -0.70500
V1647       V  0.80128933  0.97663477  0.51454498     1.35200
V1648       V  0.87471429  0.99217272  0.51179928     1.35200
C1649       C  0.85309724  0.91562666  0.47124857     0.78900
C1650       C  0.82996457  0.55007908  0.56376241     0.79000
C1651       C  0.83769927  0.03351777  0.94554833     0.78900
C1652       C  0.85092807  0.94318601  0.57595707     0.78800
O1653       O  0.99523401  0.58260680  0.89566002    -0.70300
O1654       O  0.49559954  0.95946190  0.87560709    -0.70500
O1655       O  0.57674367  0.53226050  0.88489455    -0.70400
O1656       O  0.92485434  0.01933994  0.88984384    -0.70400
O1657       O  0.92979358  0.51298138  0.83384290    -0.70400
O1658       O  0.55365339  0.03901295  0.81338526    -0.70400
O1659       O  0.98926156  0.96323645  0.81107084    -0.70300
O1660       O  0.48985463  0.58971280  0.83243302    -0.70500
V1661       V  0.00764777  0.51862678  0.88781141     1.35200
V1662       V  0.98424135  0.02797657  0.82085834     1.35200
C1663       C  0.48885854  0.60988415  0.86611372     0.78900
C1664       C  0.99146078  0.93764233  0.84011549     0.79000
C1665       C  0.58077255  0.03678778  0.84318002     0.78900
C1666       C  0.89599824  0.02148051  0.86189193     0.78800
O1667       O  0.48508156  0.82337547  0.91330820    -0.70300
O1668       O  0.02807195  0.79619046  0.52218224    -0.70500
O1669       O  0.93119703  0.80677387  0.98074362    -0.70400
O1670       O  0.58589910  0.81719446  0.46124621    -0.70400
O1671       O  0.57951336  0.88751794  0.47742151    -0.70400
O1672       O  0.94639973  0.87426517  0.49447711    -0.70400
O1673       O  0.52613101  0.87133758  0.54196862    -0.70300
O1674       O  0.97760723  0.89581433  0.92903828    -0.70500
V1675       V  0.51918297  0.81170190  0.47382062     1.35200
V1676       V  0.51327460  0.87997125  0.48855165     1.35200
C1677       C  0.47646771  0.86345231  0.90473044     0.78900
C1678       C  0.53492326  0.83260494  0.55276058     0.79000
C1679       C  0.92444146  0.83807219  0.48523478     0.78900
C1680       C  0.60528893  0.85538625  0.46418493     0.78800
loop_ 
_geom_bond_atom_site_label_1 
_geom_bond_atom_site_label_2 
_geom_bond_distance 
_geom_bond_site_symmetry_2 
_ccdc_geom_bond_type 
O1            V9   1.857       .  S
O1          C221   1.252       .  A
O2            V9   1.840       .  S
O2           C12   1.254       .  A
O3            V9   1.915       .  S
O3          C223   1.266       .  A
O4            V9   1.862       .  S
O4           C14   1.263       .  A
O5           V10   1.886       .  S
O5          C224   1.257       .  A
O6           V10   1.881   1_556  S
O6           C13   1.263       .  A
O7           V10   1.898       .  S
O7          C222   1.266       .  A
O8           V10   1.899       .  S
O8           C11   1.267   1_554  A
V9          V220   2.088       .  T
V10         V219   2.087   1_554  T
C11         O211   1.259       .  A
C11         C149   1.464       .  S
C12         O217   1.270       .  A
C12         C254   1.476       .  S
C13         O213   1.258       .  A
C13          C51   1.446       .  S
C14         O215   1.251       .  A
C14         C296   1.432       .  S
O15          V23   1.874       .  S
O15          C25   1.258       .  A
O16          V23   1.863       .  S
O16          C26   1.261       .  A
O17          V23   1.920       .  S
O17          C27   1.272       .  A
O18          V23   1.918       .  S
O18          C28   1.270       .  A
O19          V24   1.902       .  S
O19         C448   1.263       .  A
O20          V24   1.885   1_565  S
O20         C447   1.257       .  A
O21          V24   1.941       .  S
O21         C446   1.274   1_545  A
O22          V24   1.951   1_565  S
O22         C445   1.278       .  A
V23         V444   2.067       .  T
V24         V443   2.075   1_545  T
C25         O442   1.282       .  A
C25         C128   1.506       .  S
C26         O441   1.278       .  A
C26          C58   1.513       .  S
C27         O440   1.260       .  A
C27          C79   1.476       .  S
C28         O439   1.263       .  A
C28         C163   1.478       .  S
O29          V37   1.874       .  S
O29          C39   1.258       .  A
O30          V37   1.869       .  S
O30          C40   1.264       .  A
O31          V37   1.954       .  S
O31          C41   1.285       .  A
O32          V37   1.938       .  S
O32          C42   1.270       .  A
O33          V38   1.903       .  S
O33         C882   1.268       .  A
O34          V38   1.921       .  S
O34         C881   1.261   1_455  A
O35          V38   1.978       .  S
O35         C880   1.282       .  A
O36          V38   1.974       .  S
O36         C879   1.284   1_455  A
V37         V878   2.078       .  T
V38         V877   2.077   1_455  T
C39         O876   1.283       .  A
C39         C156   1.512       .  S
C40         O875   1.280       .  A
C40         C954   1.542       .  S
C41         O874   1.261       .  A
C41         C933   1.521       .  S
C42         O873   1.269       .  A
C42         C121   1.500       .  S
N43          C47   1.348       .  A
N43          C44   1.360       .  A
N43         C111   1.453       .  S
C44         C222   1.471       .  S
C44          C45   1.394       .  A
C45          C46   1.368       .  A
C45          H48   1.084       .  S
C46          C47   1.370       .  A
C46          H49   1.083       .  S
C47          C76   1.437       .  S
N50          C54   1.354       .  A
N50          C51   1.344       .  A
N50         C210   1.450       .  S
C51          C52   1.381       .  A
C52          C53   1.376       .  A
C52          H55   1.081       .  S
C53          C54   1.381       .  A
C53          H56   1.083       .  S
C54          C77   1.452       .  S
N57          C61   1.363       .  A
N57          C58   1.369       .  A
N57         C195   1.466       .  S
C58          C59   1.399       .  A
C59          C60   1.370       .  A
C59          H62   1.084       .  S
C60          C61   1.377       .  A
C60          H63   1.083       .  S
C61          C74   1.470       .  S
O64          V72   1.890       .  S
O64          C74   1.261       .  A
O65         V702   1.913   1_564  S
O65         C495   1.271       .  A
O66         V492   1.893       .  S
O66         C286   1.264       .  A
O67         V282   1.871       .  S
O67          C77   1.254       .  A
O68         V283   1.867       .  S
O68         C287   1.251       .  A
O69         V493   1.895   1_554  S
O69          C76   1.265       .  A
O70          V73   1.897   1_554  S
O70          C75   1.263       .  A
O71         V703   1.905       .  S
O71         C494   1.265       .  A
V72         O695   1.907       .  S
V72         O486   1.887       .  S
V72         O277   1.866       .  S
V72         V283   2.082       .  T
V73         O278   1.892       .  S
V73         O489   1.886   1_556  S
V73         O701   1.905       .  S
V73         V282   2.085       .  T
C74         O491   1.264       .  A
C75         O485   1.269       .  A
C75          C82   1.487       .  S
C76         O276   1.250       .  A
C77         O278   1.260       .  A
N78          C82   1.371       .  A
N78          C79   1.367       .  A
N78         C147   1.454       .  S
C79          C80   1.382       .  A
C80          C81   1.371       .  A
C80          H83   1.082       .  S
C81          C82   1.378       .  A
C81          H84   1.083       .  S
N85          C89   1.341       .  A
N85          C86   1.347       .  A
N85         C112   1.448       .  S
C86         C224   1.436       .  S
C86          C87   1.380       .  A
C87          C88   1.373       .  A
C87          H90   1.083       .  S
C88          C89   1.384       .  A
C88          H91   1.083       .  S
C89         C180   1.435       .  S
N92          C96   1.386       .  A
N92          C93   1.394       .  A
N92         C193   1.474       .  S
C93         C881   1.514       .  S
C93          C94   1.378       .  A
C94         C935   1.359       .  A
C94          H97   1.083       .  S
C95         C934   1.363       .  A
C95         C936   1.371       .  A
C95          H98   1.069       .  S
C96         C109   1.518       .  S
C96         C935   1.368       .  A
O99         V947   1.933       .  S
O99         C949   1.277       .  A
O100        V317   1.921       .  S
O100        C110   1.272   1_655  A
O101        V107   1.878   1_455  S
O101        C321   1.257       .  A
O102       V1157   1.891       .  S
O102        C112   1.260       .  A
O103       V1158   1.881       .  S
O103        C322   1.260       .  A
O104        V108   1.903       .  S
O104        C111   1.270       .  A
O105        V948   1.903       .  S
O105        C950   1.261       .  A
O106        V318   1.919       .  S
O106        C109   1.262       .  A
V107        O939   1.934       .  S
V107        O310   1.925       .  S
V107       O1152   1.879       .  S
V107        V318   2.079       .  T
V108       O1153   1.899   1_455  S
V108        O945   1.898       .  S
V108        O316   1.908   1_454  S
V108        V317   2.078   1_455  T
C109        O939   1.279       .  A
C110        O945   1.259       .  A
C110        C117   1.482   1_455  S
C111        O311   1.262       .  A
C112        O313   1.269       .  A
N113        C117   1.361   1_455  A
N113        C114   1.381   1_455  A
N113        C144   1.485       .  S
C114        C880   1.544   1_655  S
C114        C115   1.401       .  A
C115        C116   1.377       .  A
C115        H118   1.084       .  S
C116        C117   1.377       .  A
C116        H119   1.080       .  S
N120        C124   1.374       .  A
N120        C121   1.381       .  A
N120        C145   1.468       .  S
C121        C122   1.382       .  A
C122        C123   1.356       .  A
C122        H125   1.083       .  S
C123        C124   1.371       .  A
C123        H126   1.073       .  S
C124       C1048   1.484       .  S
N127        C131   1.367       .  A
N127        C128   1.365       .  A
N127        C146   1.452       .  S
C128        C129   1.396       .  A
C129        C130   1.366       .  A
C129        H132   1.083       .  S
C130        C131   1.369       .  A
C130        H133   1.082       .  S
C131        C182   1.478       .  S
O134       V1402   1.924   1_545  S
O134        C144   1.272       .  A
O135        V142   1.928       .  S
O135        C145   1.272       .  A
O136        V562   1.891       .  S
O136        C566   1.262       .  A
O137        V982   1.876       .  S
O137        C147   1.256       .  A
O138       V1403   1.935       .  S
O138        C567   1.271       .  A
O139        V143   1.935       .  S
O139        C146   1.273       .  A
O140        V983   1.928       .  S
O140        C985   1.269       .  A
O141        V563   1.950   1_545  S
O141        C984   1.277       .  A
V142       O1394   1.910       .  S
V142        O556   1.875       .  S
V142        O977   1.872       .  S
V142        V143   2.078       .  T
V143       O1398   1.938       .  S
V143        O980   1.933       .  S
V143        O561   1.941       .  S
C144        O981   1.277       .  A
C145        O980   1.270       .  A
C146        O556   1.258       .  A
C147        O558   1.278       .  A
N148        C152   1.339       .  A
N148        C149   1.354       .  A
N148        C209   1.447       .  S
C149        C150   1.397       .  A
C150        C151   1.358       .  A
C150        H153   1.084       .  S
C151        C152   1.364       .  A
C151        H154   1.082       .  S
C152        C179   1.409       .  S
N155        C159   1.360       .  A
N155        C156   1.377       .  A
N155        C194   1.484       .  S
C156        C157   1.391       .  A
C157        C998   1.352       .  A
C157        H160   1.085       .  S
C158        C997   1.352       .  A
C158        C999   1.361       .  A
C158        H161   1.071       .  S
C159       C1047   1.452       .  S
C159        C998   1.362       .  A
N162        C166   1.373       .  A
N162        C163   1.362       .  A
N162        C196   1.449       .  S
C163        C164   1.376       .  A
C164        C165   1.370       .  A
C164        H167   1.083       .  S
C165        C166   1.382       .  A
C165        H168   1.082       .  S
C166        C181   1.491       .  S
O169        V177   1.856   1_556  S
O169        C179   1.257       .  A
O170        V807   1.870   1_545  S
O170        C390   1.255       .  A
O171        V387   1.898       .  S
O171        C181   1.265       .  A
O172        V597   1.895       .  S
O172        C602   1.262       .  A
O173        V178   1.904       .  S
O173        C182   1.267       .  A
O174        V808   1.923   1_545  S
O174        C601   1.266       .  A
O175        V598   1.877   1_545  S
O175        C180   1.258       .  A
O176        V388   1.864       .  S
O176        C389   1.254       .  A
V177        O800   1.871       .  S
V177        O381   1.888   1_554  S
V177        O592   1.895       .  S
V177        V178   2.087       .  T
V178        O804   1.927   1_554  S
V178        O595   1.857       .  S
V178        O386   1.856   1_554  S
C179        O386   1.251       .  A
C180        O380   1.256       .  A
C181        O594   1.266       .  A
C182        O592   1.261       .  A
O183        V191   1.920       .  S
O183       C1033   1.269       .  A
O184       V1451   1.944   1_455  S
O184       C1034   1.277   1_455  A
O185       V1031   1.886   1_455  S
O185        C615   1.265       .  A
O186        V611   1.903       .  S
O186        C196   1.262       .  A
O187        V612   1.919       .  S
O187        C616   1.273       .  A
O188       V1032   1.931   1_455  S
O188        C195   1.272       .  A
O189        V192   1.948       .  S
O189        C194   1.276       .  A
O190       V1452   1.952       .  S
O190        C193   1.276       .  A
V191       O1444   1.944   1_545  S
V191       O1025   1.880       .  S
V191        O606   1.902       .  S
V191        V612   2.075       .  T
V192        O607   1.924       .  S
V192       O1028   1.937       .  S
V192       O1450   1.961       .  S
V192        V611   2.075       .  T
C193       O1023   1.268       .  A
C194       O1024   1.276       .  A
C195        O605   1.265       .  A
C196        O607   1.273       .  A
O197        V415   1.900       .  S
O197        C207   1.268       .  A
O198       V1045   1.910   1_554  S
O198       C1048   1.271       .  A
O199       V1255   1.909       .  S
O199        C419   1.263       .  A
O200        V205   1.902       .  S
O200        C210   1.263       .  A
O201        V206   1.887       .  S
O201        C210   1.261       .  A
O202       V1046   1.890   1_554  S
O202        C209   1.269   1_554  A
O203        V206   1.901   1_554  S
O203        C208   1.259       .  A
O204       V1256   1.884       .  S
O204       C1047   1.254       .  A
V205        O407   1.890       .  S
V205       O1038   1.904   1_556  S
V205       O1249   1.912       .  S
V205        V206   2.083       .  T
V206       O1042   1.886   1_455  S
V206       O1254   1.908       .  S
C207       O1044   1.255       .  A
C207        C999   1.453   1_455  S
C208       O1038   1.270       .  A
C208        C964   1.480       .  S
C209        O409   1.263       .  A
O211        V219   1.874       .  S
O212        V219   1.885       .  S
O212        C222   1.262   1_556  A
O213        V219   1.888       .  S
O214        V219   1.867   1_554  S
O214        C224   1.260       .  A
O215        V220   1.876       .  S
O216        V220   1.835       .  S
O216        C223   1.253       .  A
O217        V220   1.929       .  S
O218        V220   1.938       .  S
O218        C221   1.276       .  A
C221        C359   1.476       .  S
C223        C261   1.447       .  S
O225        V233   1.893       .  S
O225        C235   1.266       .  A
O226        V233   1.911       .  S
O226        C236   1.260       .  A
O227        V233   1.957       .  S
O227        C237   1.275       .  A
O228        V233   1.932       .  S
O228        C238   1.277       .  A
O229        V234   1.883       .  S
O229        C658   1.252       .  A
O230        V234   1.859       .  S
O230        C657   1.258       .  A
O231        V234   1.938       .  S
O231        C656   1.281       .  A
O232        V234   1.939       .  S
O232        C655   1.273   1_545  A
V233        V654   2.079       .  T
V234        V653   2.078   1_545  T
C235        O652   1.272       .  A
C235        C338   1.505       .  S
C236        O651   1.280       .  A
C236        C268   1.505       .  S
C237        O650   1.262       .  A
C237        C289   1.509       .  S
C238        O649   1.257       .  A
C238        C373   1.478       .  S
O239        V247   1.880       .  S
O239        C249   1.259       .  A
O240        V247   1.877       .  S
O240        C250   1.262       .  A
O241        V247   1.947       .  S
O241        C251   1.284       .  A
O242        V247   1.930       .  S
O242        C252   1.268       .  A
O243        V248   1.895       .  S
O243       C1092   1.265       .  A
O244        V248   1.911       .  S
O244       C1091   1.259   1_455  A
O245        V248   1.980       .  S
O245       C1090   1.283   1_455  A
O246        V248   1.973       .  S
O246       C1089   1.285       .  A
V247       V1088   2.078       .  T
V248       V1087   2.078   1_455  T
C249       O1086   1.285       .  A
C249        C366   1.517       .  S
C250       O1085   1.284       .  A
C250       C1164   1.540       .  S
C251       O1084   1.258       .  A
C251       C1143   1.513       .  S
C252       O1083   1.265       .  A
C252        C331   1.485       .  S
N253        C257   1.338       .  A
N253        C254   1.353       .  A
N253        C321   1.425       .  S
C254        C255   1.403       .  A
C255        C256   1.381       .  A
C255        H258   1.083       .  S
C256        C257   1.374       .  A
C256        H259   1.082       .  S
C257        C286   1.444       .  S
N260        C264   1.353       .  A
N260        C261   1.360       .  A
N260        C420   1.456       .  S
C261        C262   1.384       .  A
C262        C263   1.373       .  A
C262        H265   1.082       .  S
C263        C264   1.380       .  A
C263        H266   1.083       .  S
C264        C287   1.461       .  S
N267        C271   1.372       .  A
N267        C268   1.376       .  A
N267        C405   1.465       .  S
C268        C269   1.389       .  A
C269        C270   1.370       .  A
C269        H272   1.083       .  S
C270        C271   1.376       .  A
C270        H273   1.083       .  S
C271        C284   1.495       .  S
O274        V282   1.914       .  S
O274        C284   1.266       .  A
O275        V492   1.894       .  S
O275        C705   1.257       .  A
O276        V702   1.855   1_554  S
O277        C287   1.254       .  A
O279        V703   1.870       .  S
O279        C286   1.256       .  A
O280        V283   1.927       .  S
O280        C285   1.275       .  A
O281        V493   1.896       .  S
O281        C704   1.261       .  A
V282        O485   1.924   1_556  S
V282        O696   1.874   1_556  S
V283        O699   1.866       .  S
V283        O491   1.910       .  S
C284        O701   1.262       .  A
C285        O695   1.262       .  A
C285        C292   1.497       .  S
N288        C292   1.383       .  A
N288        C289   1.373       .  A
N288        C357   1.455       .  S
C289        C290   1.386       .  A
C290        C291   1.361       .  A
C290        H293   1.082       .  S
C291        C292   1.370       .  A
C291        H294   1.083       .  S
N295        C299   1.335       .  A
N295        C296   1.332       .  A
N295        C322   1.434       .  S
C296        C297   1.376       .  A
C297        C298   1.383       .  A
C297        H300   1.081       .  S
C298        C299   1.381       .  A
C298        H301   1.080       .  S
C299        C390   1.435       .  S
N302        C306   1.375       .  A
N302        C303   1.389       .  A
N302        C403   1.471       .  S
C303       C1091   1.504       .  S
C303        C304   1.376       .  A
C304       C1145   1.358       .  A
C304        H307   1.083       .  S
C305       C1144   1.358       .  A
C305       C1146   1.363       .  A
C305        H308   1.057       .  S
C306        C319   1.501       .  S
C306       C1145   1.365       .  A
O309       V1157   1.925   1_556  S
O309       C1159   1.277       .  A
O310        C320   1.274       .  A
O311        V317   1.908   1_455  S
O312        V947   1.878       .  S
O312        C322   1.258       .  A
O313        V948   1.904       .  S
O314        V318   1.872   1_455  S
O314        C321   1.267       .  A
O315       V1158   1.905       .  S
O315       C1160   1.261       .  A
O316        C319   1.258       .  A
V317       O1149   1.926   1_554  S
V317        O942   1.894       .  S
V318        O943   1.884       .  S
V318       O1155   1.900       .  S
C319       O1149   1.278       .  A
C320       O1155   1.259       .  A
C320        C327   1.481       .  S
N323        C327   1.362       .  A
N323        C324   1.383       .  A
N323        C354   1.483   1_655  S
C324       C1090   1.543       .  S
C324        C325   1.401       .  A
C325        C326   1.374       .  A
C325        H328   1.084       .  S
C326        C327   1.373       .  A
C326        H329   1.083       .  S
N330        C334   1.376       .  A
N330        C331   1.376       .  A
N330        C355   1.470       .  S
C331        C332   1.382       .  A
C332        C333   1.351       .  A
C332        H335   1.084       .  S
C333        C334   1.373       .  A
C333        H336   1.076       .  S
C334       C1258   1.477       .  S
N337        C341   1.362       .  A
N337        C338   1.366       .  A
N337        C356   1.456       .  S
C338        C339   1.394       .  A
C339        C340   1.367       .  A
C339        H342   1.083       .  S
C340        C341   1.372       .  A
C340        H343   1.083       .  S
C341        C392   1.470       .  S
O344       V1612   1.940   1_545  S
O344        C354   1.276       .  A
O345        V352   1.922       .  S
O345        C355   1.269       .  A
O346        V772   1.882       .  S
O346        C776   1.259       .  A
O347       V1192   1.893       .  S
O347        C357   1.261       .  A
O348       V1613   1.936       .  S
O348        C777   1.277       .  A
O349        V353   1.938       .  S
O349        C356   1.272       .  A
O350       V1193   1.956       .  S
O350       C1195   1.277       .  A
O351        V773   1.942   1_545  S
O351       C1194   1.276       .  A
V352       O1604   1.921       .  S
V352        O766   1.890       .  S
V352       O1187   1.890       .  S
V352        V353   2.076       .  T
V353       O1608   1.925       .  S
V353       O1190   1.943       .  S
V353        O771   1.932       .  S
C354       O1191   1.276       .  A
C355       O1190   1.274       .  A
C356        O766   1.262       .  A
C357        O768   1.274       .  A
N358        C362   1.348       .  A
N358        C359   1.359       .  A
N358        C419   1.451       .  S
C359        C360   1.395       .  A
C360        C361   1.353       .  A
C360        H363   1.083       .  S
C361        C362   1.360       .  A
C361        H364   1.082       .  S
C362        C389   1.413       .  S
N365        C369   1.369       .  A
N365        C366   1.385       .  A
N365        C404   1.487       .  S
C366        C367   1.388       .  A
C367       C1208   1.347       .  A
C367        H370   1.085       .  S
C368       C1207   1.348       .  A
C368       C1209   1.360   1_655  A
C368        H371   1.079       .  S
C369       C1257   1.461       .  S
C369       C1208   1.359       .  A
N372        C376   1.378       .  A
N372        C373   1.375       .  A
N372        C406   1.460       .  S
C373        C374   1.377       .  A
C374        C375   1.357       .  A
C374        H377   1.081       .  S
C375        C376   1.371       .  A
C375        H378   1.079       .  S
C376        C391   1.485       .  S
O379        V387   1.857       .  S
O379        C389   1.254       .  A
O380        V597   1.863   1_545  S
O381        C391   1.265       .  A
O382        V807   1.899       .  S
O382        C812   1.264       .  A
O383        V388   1.889       .  S
O383        C392   1.261       .  A
O384        V598   1.905   1_546  S
O384        C811   1.261       .  A
O385        V808   1.874   1_545  S
O385        C390   1.258       .  A
V387        O590   1.874       .  S
V387        O802   1.898       .  S
V387        V388   2.089       .  T
V388        O594   1.925       .  S
V388        O805   1.874       .  S
C391        O804   1.269       .  A
C392        O802   1.264       .  A
O393        V401   1.936       .  S
O393       C1243   1.275       .  A
O394       V1661   1.940       .  S
O394       C1244   1.275       .  A
O395       V1241   1.871   1_455  S
O395        C825   1.258       .  A
O396        V821   1.877       .  S
O396        C406   1.257       .  A
O397        V822   1.961       .  S
O397        C826   1.281       .  A
O398       V1242   1.966   1_455  S
O398        C405   1.280       .  A
O399        V402   1.958       .  S
O399        C404   1.278       .  A
O400       V1662   1.934       .  S
O400        C403   1.271       .  A
V401       O1654   1.922   1_545  S
V401       O1235   1.867       .  S
V401        O816   1.885       .  S
V401        V822   2.075       .  T
V402        O817   1.965       .  S
V402       O1238   1.971       .  S
V402       O1660   1.948       .  S
V402        V821   2.075       .  T
C403       O1233   1.274       .  A
C404       O1234   1.275       .  A
C405        O815   1.256       .  A
C406        O817   1.281       .  A
O407        C417   1.266       .  A
O408       V1255   1.903       .  S
O408       C1258   1.271       .  A
O409       V1045   1.916       .  S
O410        V415   1.913       .  S
O410        C420   1.262       .  A
O411        V416   1.892       .  S
O411        C420   1.263       .  A
O412       V1256   1.905       .  S
O412        C419   1.272       .  A
O413        V416   1.891       .  S
O413        C418   1.254       .  A
O414       V1046   1.905       .  S
O414       C1257   1.260       .  A
V415       O1248   1.904       .  S
V415       O1039   1.911   1_455  S
V415        V416   2.082       .  T
V416       O1252   1.903   1_455  S
V416       O1044   1.884       .  S
C417       O1254   1.261       .  A
C417       C1209   1.464       .  S
C418       O1248   1.272       .  A
C418       C1174   1.478       .  S
O421        V429   1.851       .  S
O421        C641   1.251       .  A
O422        V429   1.832       .  S
O422        C432   1.252       .  A
O423        V429   1.914       .  S
O423        C643   1.266       .  A
O424        V429   1.851       .  S
O424        C434   1.260       .  A
O425        V430   1.850       .  S
O425        C644   1.248       .  A
O426        V430   1.854   1_556  S
O426        C433   1.258       .  A
O427        V430   1.912       .  S
O427        C642   1.267       .  A
O428        V430   1.874       .  S
O428        C431   1.263   1_554  A
V429        V640   2.087       .  T
V430        V639   2.069   1_554  T
C431        O631   1.259       .  A
C431        C569   1.441       .  S
C432        O637   1.267       .  A
C432        C674   1.460       .  S
C433        O633   1.264       .  A
C433        C471   1.461       .  S
C434        O635   1.256       .  A
C434        C716   1.437       .  S
O435        V443   1.878       .  S
O435        C445   1.258       .  A
O436        V443   1.856       .  S
O436        C446   1.260       .  A
O437        V443   1.916       .  S
O437        C447   1.272       .  A
O438        V443   1.919       .  S
O438        C448   1.269   1_565  A
O439        V444   1.902       .  S
O440        V444   1.899       .  S
O441        V444   1.959       .  S
O442        V444   1.965       .  S
C445        C548   1.495       .  S
C446        C478   1.499       .  S
C447        C499   1.466       .  S
C448        C583   1.481       .  S
O449        V457   1.879       .  S
O449        C459   1.263       .  A
O450        V457   1.874       .  S
O450        C460   1.263       .  A
O451        V457   1.938       .  S
O451        C461   1.279       .  A
O452        V457   1.927       .  S
O452        C462   1.266       .  A
O453        V458   1.928       .  S
O453       C1302   1.274       .  A
O454        V458   1.940       .  S
O454       C1301   1.268   1_455  A
O455        V458   1.965       .  S
O455       C1300   1.278       .  A
O456        V458   1.968       .  S
O456       C1299   1.280   1_455  A
V457       V1298   2.078       .  T
V458       V1297   2.077   1_455  T
C459       O1296   1.280       .  A
C459        C576   1.522       .  S
C460       O1295   1.276       .  A
C460       C1374   1.521       .  S
C461       O1294   1.270       .  A
C461       C1353   1.521       .  S
C462       O1293   1.275       .  A
C462        C541   1.504       .  S
N463        C467   1.339       .  A
N463        C464   1.353       .  A
N463        C531   1.441       .  S
C464        C642   1.459       .  S
C464        C465   1.389       .  A
C465        C466   1.378       .  A
C465        H468   1.083       .  S
C466        C467   1.375       .  A
C466        H469   1.082       .  S
C467        C496   1.445       .  S
N470        C474   1.352       .  A
N470        C471   1.358       .  A
N470        C630   1.446       .  S
C471        C472   1.392   1_556  A
C472        C473   1.357       .  A
C472        H475   1.077       .  S
C473        C474   1.383   1_554  A
C473        H476   1.060       .  S
C474        C497   1.458       .  S
N477        C481   1.358   1_545  A
N477        C478   1.362   1_545  A
N477        C615   1.461       .  S
C478        C479   1.399       .  A
C479        C480   1.370       .  A
C479        H482   1.083       .  S
C480        C481   1.379       .  A
C480        H483   1.083       .  S
C481        C494   1.455   1_565  S
O484        V492   1.875   1_565  S
O484        C494   1.256   1_565  A
O486        C706   1.262       .  A
O487        V702   1.868   1_565  S
O487        C497   1.255       .  A
O488        V703   1.871   1_565  S
O488        C707   1.252       .  A
O489        C496   1.263       .  A
O490        V493   1.888   1_564  S
O490        C495   1.259       .  A
V492        O697   1.868   1_545  S
V492        V703   2.082       .  T
V493        O698   1.900   1_545  S
V493        V702   2.077       .  T
C495        C502   1.486       .  S
C496        O696   1.256       .  A
C497        O698   1.266       .  A
N498        C502   1.363       .  A
N498        C499   1.366       .  A
N498        C567   1.450       .  S
C499        C500   1.381       .  A
C500        C501   1.366       .  A
C500        H503   1.081       .  S
C501        C502   1.377       .  A
C501        H504   1.082       .  S
N505        C509   1.345       .  A
N505        C506   1.333       .  A
N505        C532   1.442       .  S
C506        C644   1.427       .  S
C506        C507   1.382       .  A
C507        C508   1.368       .  A
C507        H510   1.080       .  S
C508        C509   1.377       .  A
C508        H511   1.083       .  S
C509        C600   1.423       .  S
N512        C516   1.394       .  A
N512        C513   1.401       .  A
N512        C613   1.479       .  S
C513       C1301   1.519       .  S
C513        C514   1.376       .  A
C514       C1355   1.354       .  A
C514        H517   1.082       .  S
C515       C1354   1.352       .  A
C515       C1356   1.370       .  A
C515        H518   1.070       .  S
C516        C529   1.520       .  S
C516       C1355   1.370       .  A
O519       V1367   1.925       .  S
O519       C1369   1.279       .  A
O520        V737   1.910       .  S
O520        C530   1.267       .  A
O521        V527   1.860   1_455  S
O521        C741   1.253       .  A
O522       V1577   1.890       .  S
O522        C532   1.260       .  A
O523       V1578   1.880       .  S
O523        C742   1.260       .  A
O524        V528   1.890   1_455  S
O524        C531   1.267       .  A
O525       V1368   1.900       .  S
O525       C1370   1.260       .  A
O526        V738   1.925       .  S
O526        C529   1.262       .  A
V527       O1359   1.928       .  S
V527        O730   1.927       .  S
V527       O1572   1.868       .  S
V527        V738   2.082       .  T
V528       O1573   1.893       .  S
V528       O1365   1.899       .  S
V528        O736   1.909   1_554  S
V528        V737   2.082       .  T
C529       O1359   1.280       .  A
C530       O1365   1.260       .  A
C530        C537   1.469       .  S
C531        O731   1.261       .  A
C532        O733   1.263       .  A
N533        C537   1.358   1_455  A
N533        C534   1.378       .  A
N533        C564   1.478       .  S
C534       C1300   1.534       .  S
C534        C535   1.401   1_455  A
C535        C536   1.375       .  A
C535        H538   1.084       .  S
C536        C537   1.374       .  A
C536        H539   1.082       .  S
N540        C544   1.385       .  A
N540        C541   1.387       .  A
N540        C565   1.475       .  S
C541        C542   1.380       .  A
C542        C543   1.358       .  A
C542        H545   1.083       .  S
C543        C544   1.371       .  A
C543        H546   1.076       .  S
C544       C1468   1.504       .  S
N547        C551   1.368       .  A
N547        C548   1.363       .  A
N547        C566   1.451       .  S
C548        C549   1.393       .  A
C549        C550   1.366       .  A
C549        H552   1.083       .  S
C550        C551   1.370       .  A
C550        H553   1.083       .  S
C551        C602   1.472       .  S
O554        V982   1.919       .  S
O554        C564   1.273       .  A
O555        V562   1.933       .  S
O555        C565   1.272       .  A
O557       V1402   1.870       .  S
O557        C567   1.256       .  A
O558        V983   1.945       .  S
O559        V563   1.928       .  S
O559        C566   1.272       .  A
O560       V1403   1.947       .  S
O560       C1405   1.274       .  A
O561       C1404   1.276       .  A
V562        O974   1.922   1_565  S
V562       O1397   1.875       .  S
V562        V563   2.078       .  T
V563        O978   1.928       .  S
V563       O1400   1.945       .  S
C564       O1401   1.275       .  A
C565       O1400   1.275       .  A
N568        C572   1.342       .  A
N568        C569   1.345       .  A
N568        C629   1.439       .  S
C569        C570   1.392       .  A
C570        C571   1.374       .  A
C570        H573   1.083       .  S
C571        C572   1.374       .  A
C571        H574   1.082       .  S
C572        C599   1.435       .  S
N575        C579   1.362       .  A
N575        C576   1.380       .  A
N575        C614   1.482       .  S
C576        C577   1.391       .  A
C577       C1418   1.354       .  A
C577        H580   1.084       .  S
C578       C1417   1.355       .  A
C578       C1419   1.360       .  A
C578        H581   1.071       .  S
C579       C1467   1.465       .  S
C579       C1418   1.362       .  A
N582        C586   1.374       .  A
N582        C583   1.362       .  A
N582        C616   1.447       .  S
C583        C584   1.377       .  A
C584        C585   1.368       .  A
C584        H587   1.083       .  S
C585        C586   1.382       .  A
C585        H588   1.082       .  S
C586        C601   1.491       .  S
O589        V597   1.871   1_556  S
O589        C599   1.255       .  A
O590        C810   1.255       .  A
O591        V807   1.898   1_545  S
O591        C601   1.267       .  A
O593        V598   1.907       .  S
O593        C602   1.264       .  A
O595        C600   1.252       .  A
O596        V808   1.859       .  S
O596        C809   1.254       .  A
V597        O801   1.888   1_564  S
V597        V598   2.088       .  T
V598        O806   1.871   1_554  S
C599        O806   1.258       .  A
C600        O800   1.256       .  A
O603        V611   1.928       .  S
O603       C1453   1.271       .  A
O604       V1031   1.939   1_565  S
O604       C1454   1.275       .  A
O605       V1451   1.888   1_455  S
O606        C616   1.262       .  A
O608       V1452   1.922   1_455  S
O608        C615   1.270       .  A
O609        V612   1.942   1_565  S
O609        C614   1.275       .  A
O610       V1032   1.960       .  S
O610        C613   1.277       .  A
V611       O1024   1.945       .  S
V611       O1445   1.888       .  S
V612       O1448   1.923       .  S
V612       O1030   1.953       .  S
C613       O1443   1.270       .  A
C614       O1444   1.276       .  A
O617        V835   1.904       .  S
O617        C627   1.269   1_455  A
O618       V1465   1.927   1_554  S
O618       C1468   1.279       .  A
O619       V1675   1.897       .  S
O619        C839   1.261       .  A
O620        V625   1.881   1_455  S
O620        C630   1.260       .  A
O621        V626   1.884   1_455  S
O621        C630   1.270       .  A
O622       V1466   1.882       .  S
O622        C629   1.262       .  A
O623        V626   1.913   1_454  S
O623        C628   1.259       .  A
O624       V1676   1.892       .  S
O624       C1467   1.256       .  A
V625        O827   1.899       .  S
V625       O1458   1.917   1_656  S
V625       O1669   1.878       .  S
V625        V626   2.084       .  T
V626       O1462   1.877       .  S
V626       O1674   1.883       .  S
C627       O1464   1.257   1_655  A
C627       C1419   1.464       .  S
C628       O1458   1.276       .  A
C628       C1384   1.500       .  S
C629        O829   1.256       .  A
O631        V639   1.879       .  S
O632        V639   1.858   1_554  S
O632        C642   1.261       .  A
O633        V639   1.910       .  S
O634        V639   1.895   1_554  S
O634        C644   1.271       .  A
O635        V640   1.891       .  S
O636        V640   1.853       .  S
O636        C643   1.257       .  A
O637        V640   1.918       .  S
O638        V640   1.923       .  S
O638        C641   1.274       .  A
C641        C779   1.458       .  S
C643        C681   1.454       .  S
O645        V653   1.885       .  S
O645        C655   1.263       .  A
O646        V653   1.898   1_545  S
O646        C656   1.257       .  A
O647        V653   1.950       .  S
O647        C657   1.275   1_565  A
O648        V653   1.927       .  S
O648        C658   1.277   1_565  A
O649        V654   1.898       .  S
O650        V654   1.878       .  S
O651        V654   1.930       .  S
O652        V654   1.940       .  S
C655        C758   1.499       .  S
C656        C688   1.500       .  S
C657        C709   1.494       .  S
C658        C793   1.463       .  S
O659        V667   1.855       .  S
O659        C669   1.258       .  A
O660        V667   1.864       .  S
O660        C670   1.256       .  A
O661        V667   1.960       .  S
O661        C671   1.287       .  A
O662        V667   1.948       .  S
O662        C672   1.273       .  A
O663        V668   1.896       .  S
O663       C1512   1.266       .  A
O664        V668   1.917       .  S
O664       C1511   1.261   1_455  A
O665        V668   1.984       .  S
O665       C1510   1.285   1_455  A
O666        V668   1.984       .  S
O666       C1509   1.285   1_455  A
V667       V1508   2.069       .  T
V668       V1507   2.074   1_455  T
C669       O1506   1.284       .  A
C669        C786   1.529       .  S
C670       O1505   1.284       .  A
C670       C1584   1.525       .  S
C671       O1504   1.261       .  A
C671       C1563   1.520       .  S
C672       O1503   1.267       .  A
C672        C751   1.500       .  S
N673        C677   1.336       .  A
N673        C674   1.347       .  A
N673        C741   1.413       .  S
C674        C675   1.403       .  A
C675        C676   1.379       .  A
C675        H678   1.080       .  S
C676        C677   1.372       .  A
C676        H679   1.082       .  S
C677        C706   1.436       .  S
N680        C684   1.351       .  A
N680        C681   1.358       .  A
N680        C840   1.451       .  S
C681        C682   1.382       .  A
C682        C683   1.373       .  A
C682        H685   1.081       .  S
C683        C684   1.378       .  A
C683        H686   1.082       .  S
C684        C707   1.462       .  S
N687        C691   1.364       .  A
N687        C688   1.374       .  A
N687        C825   1.457       .  S
C688        C689   1.389       .  A
C689        C690   1.373       .  A
C689        H692   1.083       .  S
C690        C691   1.376       .  A
C690        H693   1.083       .  S
C691        C704   1.491       .  S
O694        V702   1.928       .  S
O694        C704   1.271       .  A
O697        C707   1.256       .  A
O699        C706   1.256       .  A
O700        V703   1.923       .  S
O700        C705   1.275       .  A
C705        C712   1.483       .  S
N708        C712   1.382       .  A
N708        C709   1.366       .  A
N708        C777   1.456   1_545  S
C709        C710   1.388       .  A
C710        C711   1.355       .  A
C710        H713   1.083       .  S
C711        C712   1.368       .  A
C711        H714   1.083       .  S
N715        C719   1.334       .  A
N715        C716   1.335       .  A
N715        C742   1.432       .  S
C716        C717   1.377       .  A
C717        C718   1.386       .  A
C717        H720   1.081       .  S
C718        C719   1.377       .  A
C718        H721   1.077       .  S
C719        C810   1.439       .  S
N722        C726   1.387       .  A
N722        C723   1.400       .  A
N722        C823   1.489       .  S
C723       C1511   1.513       .  S
C723        C724   1.382       .  A
C724       C1565   1.356       .  A
C724        H727   1.084       .  S
C725       C1564   1.360       .  A
C725       C1566   1.376       .  A
C725        H728   1.082       .  S
C726        C739   1.502       .  S
C726       C1565   1.377       .  A
O729       V1577   1.921   1_556  S
O729       C1579   1.275       .  A
O730        C740   1.273       .  A
O731        V737   1.900   1_455  S
O732       V1367   1.869       .  S
O732        C742   1.254       .  A
O733       V1368   1.893       .  S
O734        V738   1.865   1_455  S
O734        C741   1.265       .  A
O735       V1578   1.907       .  S
O735       C1580   1.262       .  A
O736        C739   1.259       .  A
V737       O1569   1.915   1_554  S
V737       O1362   1.895       .  S
V738       O1363   1.882       .  S
V738       O1575   1.908       .  S
C739       O1569   1.275       .  A
C740       O1575   1.262       .  A
C740        C747   1.487       .  S
N743        C747   1.362       .  A
N743        C744   1.379       .  A
N743        C774   1.477   1_655  S
C744       C1510   1.537       .  S
C744        C745   1.403       .  A
C745        C746   1.378       .  A
C745        H748   1.084       .  S
C746        C747   1.374       .  A
C746        H749   1.082       .  S
N750        C754   1.379       .  A
N750        C751   1.384       .  A
N750        C775   1.483       .  S
C751        C752   1.385       .  A
C752        C753   1.349       .  A
C752        H755   1.084       .  S
C753        C754   1.371       .  A
C753        H756   1.080       .  S
C754       C1678   1.476       .  S
N757        C761   1.363       .  A
N757        C758   1.362       .  A
N757        C776   1.453       .  S
C758        C759   1.394       .  A
C759        C760   1.368       .  A
C759        H762   1.083       .  S
C760        C761   1.372       .  A
C760        H763   1.083       .  S
C761        C812   1.473       .  S
O764       V1192   1.926       .  S
O764        C774   1.271       .  A
O765        V772   1.935       .  S
O765        C775   1.274       .  A
O767       V1612   1.890       .  S
O767        C777   1.259       .  A
O768       V1193   1.929       .  S
O769        V773   1.940       .  S
O769        C776   1.274       .  A
O770       V1613   1.961       .  S
O770       C1615   1.276       .  A
O771       C1614   1.274       .  A
V772       O1184   1.936   1_565  S
V772       O1607   1.888       .  S
V772        V773   2.073       .  T
V773       O1188   1.924       .  S
V773       O1610   1.952       .  S
C774       O1611   1.277       .  A
C775       O1610   1.275       .  A
N778        C782   1.346       .  A
N778        C779   1.348       .  A
N778        C839   1.441       .  S
C779        C780   1.393       .  A
C780        C781   1.357       .  A
C780        H783   1.083       .  S
C781        C782   1.363       .  A
C781        H784   1.081       .  S
C782        C809   1.413       .  S
N785        C789   1.351       .  A
N785        C786   1.369       .  A
N785        C824   1.478       .  S
C786        C787   1.398       .  A
C787       C1628   1.362       .  A
C787        H790   1.084       .  S
C788       C1627   1.364       .  A
C788       C1629   1.370       .  A
C788        H791   1.073       .  S
C789       C1677   1.446       .  S
C789       C1628   1.369       .  A
N792        C796   1.378       .  A
N792        C793   1.366       .  A
N792        C826   1.460       .  S
C793        C794   1.370       .  A
C794        C795   1.354       .  A
C794        H797   1.071       .  S
C795        C796   1.376       .  A
C795        H798   1.082       .  S
C796        C811   1.479       .  S
O799        V807   1.858       .  S
O799        C809   1.254       .  A
O801        C811   1.269       .  A
O803        V808   1.894       .  S
O803        C812   1.262       .  A
O805        C810   1.258       .  A
V807        V808   2.090       .  T
O813        V821   1.946       .  S
O813       C1663   1.278       .  A
O814       V1241   1.918   1_565  S
O814       C1664   1.273       .  A
O815       V1661   1.874       .  S
O816        C826   1.257       .  A
O818       V1662   1.955   1_455  S
O818        C825   1.277       .  A
O819        V822   1.943   1_565  S
O819        C824   1.274       .  A
O820       V1242   1.954       .  S
O820        C823   1.273       .  A
V821       O1234   1.940       .  S
V821       O1655   1.871       .  S
V822       O1658   1.956       .  S
V822       O1240   1.933       .  S
C823       O1653   1.277       .  A
C824       O1654   1.274       .  A
O827        C837   1.264       .  A
O828       V1675   1.907       .  S
O828       C1678   1.272       .  A
O829       V1465   1.886       .  S
O830        V835   1.905       .  S
O830        C840   1.259       .  A
O831        V836   1.886       .  S
O831        C840   1.261       .  A
O832       V1676   1.892       .  S
O832        C839   1.267       .  A
O833        V836   1.892       .  S
O833        C838   1.254       .  A
O834       V1466   1.875       .  S
O834       C1677   1.253       .  A
V835       O1668   1.898       .  S
V835       O1459   1.899   1_455  S
V835        V836   2.082       .  T
V836       O1672   1.897   1_455  S
V836       O1464   1.895       .  S
C837       O1674   1.257       .  A
C837       C1629   1.452       .  S
C838       O1668   1.271       .  A
C838       C1594   1.478       .  S
O841        V849   1.853       .  S
O841       C1061   1.255       .  A
O842        V849   1.850       .  S
O842        C852   1.256       .  A
O843        V849   1.918       .  S
O843       C1063   1.266       .  A
O844        V849   1.863       .  S
O844        C854   1.262       .  A
O845        V850   1.881       .  S
O845       C1064   1.255       .  A
O846        V850   1.871   1_556  S
O846        C853   1.261       .  A
O847        V850   1.897       .  S
O847       C1062   1.266       .  A
O848        V850   1.891       .  S
O848        C851   1.266   1_554  A
V849       V1060   2.080       .  T
V850       V1059   2.086   1_554  T
C851       O1051   1.256       .  A
C851        C989   1.455       .  S
C852       O1057   1.269       .  A
C852       C1094   1.480       .  S
C853       O1053   1.258       .  A
C853        C891   1.442       .  S
C854       O1055   1.254       .  A
C854       C1136   1.435       .  S
O855        V863   1.876       .  S
O855        C865   1.257       .  A
O856        V863   1.866       .  S
O856        C866   1.262       .  A
O857        V863   1.928       .  S
O857        C867   1.275       .  A
O858        V863   1.924       .  S
O858        C868   1.272       .  A
O859        V864   1.903       .  S
O859       C1288   1.264       .  A
O860        V864   1.882   1_565  S
O860       C1287   1.257       .  A
O861        V864   1.939       .  S
O861       C1286   1.274   1_545  A
O862        V864   1.950       .  S
O862       C1285   1.279   1_545  A
V863       V1284   2.065       .  T
V864       V1283   2.070   1_545  T
C865       O1282   1.282       .  A
C865        C968   1.504       .  S
C866       O1281   1.280       .  A
C866        C898   1.521       .  S
C867       O1280   1.258       .  A
C867        C919   1.479       .  S
C868       O1279   1.262       .  A
C868       C1003   1.481       .  S
O869        V877   1.874       .  S
O869        C879   1.259       .  A
O870        V877   1.870       .  S
O870        C880   1.263   1_655  A
O871        V877   1.947       .  S
O871        C881   1.283       .  A
O872        V877   1.934       .  S
O872        C882   1.269   1_655  A
O873        V878   1.906       .  S
O874        V878   1.922       .  S
O875        V878   1.974       .  S
O876        V878   1.966       .  S
C879        C996   1.522       .  S
C882        C961   1.495       .  S
N883        C887   1.351       .  A
N883        C884   1.360       .  A
N883        C951   1.452       .  S
C884       C1062   1.469       .  S
C884        C885   1.395       .  A
C885        C886   1.369       .  A
C885        H888   1.084       .  S
C886        C887   1.370       .  A
C886        H889   1.082       .  S
C887        C916   1.439       .  S
N890        C894   1.353       .  A
N890        C891   1.343       .  A
N890       C1050   1.453       .  S
C891        C892   1.382       .  A
C892        C893   1.377       .  A
C892        H895   1.080       .  S
C893        C894   1.380       .  A
C893        H896   1.082       .  S
C894        C917   1.447       .  S
N897        C901   1.361       .  A
N897        C898   1.371       .  A
N897       C1035   1.471       .  S
C898        C899   1.400       .  A
C899        C900   1.371       .  A
C899        H902   1.084       .  S
C900        C901   1.378       .  A
C900        H903   1.082       .  S
C901        C914   1.467       .  S
O904        V912   1.888       .  S
O904        C914   1.261       .  A
O905       V1542   1.913   1_564  S
O905       C1335   1.271       .  A
O906       V1332   1.888       .  S
O906       C1126   1.263       .  A
O907       V1122   1.864       .  S
O907        C917   1.251       .  A
O908       V1123   1.871       .  S
O908       C1127   1.252       .  A
O909       V1333   1.900       .  S
O909        C916   1.267   1_556  A
O910        V913   1.897   1_554  S
O910        C915   1.261       .  A
O911       V1543   1.902       .  S
O911       C1334   1.264       .  A
V912       O1535   1.905       .  S
V912       O1326   1.890       .  S
V912       O1117   1.870       .  S
V912       V1123   2.081       .  T
V913       O1118   1.894       .  S
V913       O1329   1.888   1_556  S
V913       O1541   1.903       .  S
V913       V1122   2.084       .  T
C914       O1331   1.264       .  A
C915       O1325   1.272       .  A
C915        C922   1.490       .  S
C916       O1116   1.248       .  A
C917       O1118   1.260       .  A
N918        C922   1.367       .  A
N918        C919   1.367       .  A
N918        C987   1.449       .  S
C919        C920   1.383       .  A
C920        C921   1.376       .  A
C920        H923   1.081       .  S
C921        C922   1.379       .  A
C921        H924   1.083       .  S
N925        C929   1.339       .  A
N925        C926   1.347       .  A
N925        C952   1.447       .  S
C926       C1064   1.435       .  S
C926        C927   1.381       .  A
C927        C928   1.372       .  A
C927        H930   1.083       .  S
C928        C929   1.382       .  A
C928        H931   1.083       .  S
C929       C1020   1.434       .  S
N932        C936   1.386       .  A
N932        C933   1.396       .  A
N932       C1033   1.475       .  S
C933        C934   1.380       .  A
C934        H937   1.083       .  S
C935        H938   1.063       .  S
C936        C949   1.520       .  S
O940       V1157   1.917       .  S
O940        C950   1.271       .  A
O941        V947   1.887       .  S
O941       C1161   1.258       .  A
O942        C952   1.259       .  A
O943       C1162   1.262       .  A
O944        V948   1.903       .  S
O944        C951   1.269       .  A
O946       V1158   1.925       .  S
O946        C949   1.264       .  A
V947       O1150   1.924       .  S
V947       V1158   2.082       .  T
V948       O1156   1.913   1_554  S
V948       V1157   2.077       .  T
C950        C957   1.483       .  S
C951       O1151   1.262       .  A
C952       O1153   1.268       .  A
N953        C957   1.360       .  A
N953        C954   1.380       .  A
N953        C984   1.483       .  S
C954        C955   1.400       .  A
C955        C956   1.376       .  A
C955        H958   1.084       .  S
C956        C957   1.376       .  A
C956        H959   1.077       .  S
N960        C964   1.373       .  A
N960        C961   1.382       .  A
N960        C985   1.467       .  S
C961        C962   1.381       .  A
C962        C963   1.354       .  A
C962        H965   1.083       .  S
C963        C964   1.370       .  A
C963        H966   1.072       .  S
N967        C971   1.370       .  A
N967        C968   1.365       .  A
N967        C986   1.451       .  S
C968        C969   1.395       .  A
C969        C970   1.365       .  A
C969        H972   1.083       .  S
C970        C971   1.370       .  A
C970        H973   1.083       .  S
C971       C1022   1.482       .  S
O974        C984   1.272       .  A
O975        V982   1.935       .  S
O975        C985   1.274       .  A
O976       V1402   1.888   1_655  S
O976       C1406   1.260       .  A
O977        C987   1.257       .  A
O978       C1407   1.270       .  A
O979        V983   1.942   1_655  S
O979        C986   1.275       .  A
O981       V1403   1.951   1_545  S
V982       O1396   1.875   1_455  S
V982        V983   2.076       .  T
V983       O1401   1.944       .  S
C986       O1396   1.256       .  A
C987       O1398   1.274       .  A
N988        C992   1.337       .  A
N988        C989   1.348       .  A
N988       C1049   1.443       .  S
C989        C990   1.396       .  A
C990        C991   1.362       .  A
C990        H993   1.084       .  S
C991        C992   1.366       .  A
C991        H994   1.082       .  S
C992       C1019   1.410       .  S
N995        C999   1.357       .  A
N995        C996   1.379       .  A
N995       C1034   1.484       .  S
C996        C997   1.391       .  A
C997       H1000   1.085       .  S
C998       H1001   1.075       .  S
N1002      C1006   1.374       .  A
N1002      C1003   1.364       .  A
N1002      C1036   1.450       .  S
C1003      C1004   1.376       .  A
C1004      C1005   1.368       .  A
C1004      H1007   1.083       .  S
C1005      C1006   1.383       .  A
C1005      H1008   1.082       .  S
C1006      C1021   1.491       .  S
O1009      V1017   1.861   1_556  S
O1009      C1019   1.258       .  A
O1010      V1647   1.872   1_545  S
O1010      C1230   1.255       .  A
O1011      V1227   1.897       .  S
O1011      C1021   1.266       .  A
O1012      V1437   1.895       .  S
O1012      C1442   1.263       .  A
O1013      V1018   1.909       .  S
O1013      C1022   1.267       .  A
O1014      V1648   1.922   1_545  S
O1014      C1441   1.266       .  A
O1015      V1438   1.873   1_545  S
O1015      C1020   1.258       .  A
O1016      V1228   1.863       .  S
O1016      C1229   1.254       .  A
V1017      O1640   1.874       .  S
V1017      O1221   1.880   1_554  S
V1017      O1432   1.892       .  S
V1017      V1018   2.090       .  T
V1018      O1644   1.928   1_554  S
V1018      O1435   1.853       .  S
V1018      O1226   1.852   1_554  S
C1019      O1226   1.250       .  A
C1020      O1220   1.254       .  A
C1021      O1434   1.265       .  A
C1022      O1432   1.261       .  A
O1023      V1031   1.918       .  S
O1025      C1455   1.262       .  A
O1026      V1451   1.905       .  S
O1026      C1036   1.263       .  A
O1027      V1452   1.921       .  S
O1027      C1456   1.272       .  A
O1028      C1035   1.272       .  A
O1029      V1032   1.946       .  S
O1029      C1034   1.275       .  A
O1030      C1033   1.276       .  A
V1031      O1446   1.905       .  S
V1031      V1452   2.077       .  T
V1032      O1447   1.924       .  S
V1032      V1451   2.076       .  T
C1035      O1445   1.266       .  A
C1036      O1447   1.273       .  A
O1037      V1255   1.899       .  S
O1037      C1047   1.269       .  A
O1039      C1259   1.264       .  A
O1040      V1045   1.901       .  S
O1040      C1050   1.264       .  A
O1041      V1046   1.889       .  S
O1041      C1050   1.261       .  A
O1042      C1049   1.267       .  A
O1043      V1046   1.900   1_554  S
O1043      C1048   1.259       .  A
V1045      O1247   1.891       .  S
V1045      V1046   2.083       .  T
C1049      O1249   1.263   1_655  A
O1051      V1059   1.866       .  S
O1052      V1059   1.879       .  S
O1052      C1062   1.261   1_556  A
O1053      V1059   1.890       .  S
O1054      V1059   1.872   1_554  S
O1054      C1064   1.263       .  A
O1055      V1060   1.880       .  S
O1056      V1060   1.836       .  S
O1056      C1063   1.254       .  A
O1057      V1060   1.928       .  S
O1058      V1060   1.932       .  S
O1058      C1061   1.275       .  A
C1061      C1199   1.474       .  S
C1063      C1101   1.448       .  S
O1065      V1073   1.895       .  S
O1065      C1075   1.267       .  A
O1066      V1073   1.916       .  S
O1066      C1076   1.260       .  A
O1067      V1073   1.956       .  S
O1067      C1077   1.276       .  A
O1068      V1073   1.929       .  S
O1068      C1078   1.277       .  A
O1069      V1074   1.884       .  S
O1069      C1498   1.252       .  A
O1070      V1074   1.862       .  S
O1070      C1497   1.257       .  A
O1071      V1074   1.942       .  S
O1071      C1496   1.283       .  A
O1072      V1074   1.945       .  S
O1072      C1495   1.274   1_545  A
V1073      V1494   2.079       .  T
V1074      V1493   2.077   1_545  T
C1075      O1492   1.272       .  A
C1075      C1178   1.508       .  S
C1076      O1491   1.280       .  A
C1076      C1108   1.509       .  S
C1077      O1490   1.263       .  A
C1077      C1129   1.508       .  S
C1078      O1489   1.256       .  A
C1078      C1213   1.476       .  S
O1079      V1087   1.887       .  S
O1079      C1089   1.260   1_655  A
O1080      V1087   1.884       .  S
O1080      C1090   1.265       .  A
O1081      V1087   1.937       .  S
O1081      C1091   1.281       .  A
O1082      V1087   1.923       .  S
O1082      C1092   1.267   1_655  A
O1083      V1088   1.893       .  S
O1084      V1088   1.912       .  S
O1085      V1088   1.981       .  S
O1086      V1088   1.973       .  S
C1089      C1206   1.521   1_455  S
C1092      C1171   1.478       .  S
N1093      C1097   1.338       .  A
N1093      C1094   1.352       .  A
N1093      C1161   1.426       .  S
C1094      C1095   1.404       .  A
C1095      C1096   1.381       .  A
C1095      H1098   1.082       .  S
C1096      C1097   1.372       .  A
C1096      H1099   1.082       .  S
C1097      C1126   1.446       .  S
N1100      C1104   1.351       .  A
N1100      C1101   1.359       .  A
N1100      C1260   1.452       .  S
C1101      C1102   1.385       .  A
C1102      C1103   1.375       .  A
C1102      H1105   1.082       .  S
C1103      C1104   1.379       .  A
C1103      H1106   1.083       .  S
C1104      C1127   1.462       .  S
N1107      C1111   1.378       .  A
N1107      C1108   1.379       .  A
N1107      C1245   1.465       .  S
C1108      C1109   1.389       .  A
C1109      C1110   1.370       .  A
C1109      H1112   1.083       .  S
C1110      C1111   1.377       .  A
C1110      H1113   1.083       .  S
C1111      C1124   1.505       .  S
O1114      V1122   1.923       .  S
O1114      C1124   1.269       .  A
O1115      V1332   1.898       .  S
O1115      C1545   1.258       .  A
O1116      V1542   1.849   1_554  S
O1117      C1127   1.255       .  A
O1119      V1543   1.873       .  S
O1119      C1126   1.256       .  A
O1120      V1123   1.927       .  S
O1120      C1125   1.275       .  A
O1121      V1333   1.895       .  S
O1121      C1544   1.260       .  A
V1122      O1325   1.929   1_556  S
V1122      O1536   1.877   1_556  S
V1123      O1539   1.869       .  S
V1123      O1331   1.908       .  S
C1124      O1541   1.262       .  A
C1125      O1535   1.261       .  A
C1125      C1132   1.496       .  S
N1128      C1132   1.381       .  A
N1128      C1129   1.371       .  A
N1128      C1197   1.451       .  S
C1129      C1130   1.385       .  A
C1130      C1131   1.364       .  A
C1130      H1133   1.082       .  S
C1131      C1132   1.369       .  A
C1131      H1134   1.082       .  S
N1135      C1139   1.336       .  A
N1135      C1136   1.334       .  A
N1135      C1162   1.434       .  S
C1136      C1137   1.377       .  A
C1137      C1138   1.382       .  A
C1137      H1140   1.081       .  S
C1138      C1139   1.377       .  A
C1138      H1141   1.078       .  S
C1139      C1230   1.436       .  S
N1142      C1146   1.376       .  A
N1142      C1143   1.394       .  A
N1142      C1243   1.472       .  S
C1143      C1144   1.377       .  A
C1144      H1147   1.083       .  S
C1145      H1148   1.034       .  S
C1146      C1159   1.505       .  S
O1150      C1160   1.273       .  A
O1151      V1157   1.907       .  S
O1152      C1162   1.256       .  A
O1154      V1158   1.865       .  S
O1154      C1161   1.264       .  A
O1156      C1159   1.261       .  A
C1160      C1167   1.485       .  S
N1163      C1167   1.364       .  A
N1163      C1164   1.382       .  A
N1163      C1194   1.480       .  S
C1164      C1165   1.400       .  A
C1165      C1166   1.374       .  A
C1165      H1168   1.084       .  S
C1166      C1167   1.373       .  A
C1166      H1169   1.082       .  S
N1170      C1174   1.380       .  A
N1170      C1171   1.377       .  A
N1170      C1195   1.478       .  S
C1171      C1172   1.382       .  A
C1172      C1173   1.351       .  A
C1172      H1175   1.084       .  S
C1173      C1174   1.375       .  A
C1173      H1176   1.079       .  S
N1177      C1181   1.361       .  A
N1177      C1178   1.367       .  A
N1177      C1196   1.461       .  S
C1178      C1179   1.395       .  A
C1179      C1180   1.367       .  A
C1179      H1182   1.083       .  S
C1180      C1181   1.372       .  A
C1180      H1183   1.083       .  S
C1181      C1232   1.469       .  S
O1184      C1194   1.274       .  A
O1185      V1192   1.925       .  S
O1185      C1195   1.269       .  A
O1186      V1612   1.884   1_655  S
O1186      C1616   1.259       .  A
O1187      C1197   1.261       .  A
O1188      C1617   1.275       .  A
O1189      V1193   1.944   1_655  S
O1189      C1196   1.273       .  A
O1191      V1613   1.942   1_545  S
V1192      O1606   1.889   1_455  S
V1192      V1193   2.074       .  T
V1193      O1611   1.942       .  S
C1196      O1606   1.262       .  A
C1197      O1608   1.272       .  A
N1198      C1202   1.349       .  A
N1198      C1199   1.357       .  A
N1198      C1259   1.451       .  S
C1199      C1200   1.395       .  A
C1200      C1201   1.353       .  A
C1200      H1203   1.084       .  S
C1201      C1202   1.362       .  A
C1201      H1204   1.081       .  S
C1202      C1229   1.416       .  S
N1205      C1209   1.370       .  A
N1205      C1206   1.388   1_455  A
N1205      C1244   1.490       .  S
C1206      C1207   1.387       .  A
C1207      H1210   1.086       .  S
C1208      H1211   1.078       .  S
N1212      C1216   1.377       .  A
N1212      C1213   1.375       .  A
N1212      C1246   1.457       .  S
C1213      C1214   1.376       .  A
C1214      C1215   1.356       .  A
C1214      H1217   1.079       .  S
C1215      C1216   1.370       .  A
C1215      H1218   1.076       .  S
C1216      C1231   1.486       .  S
O1219      V1227   1.860       .  S
O1219      C1229   1.255       .  A
O1220      V1437   1.861   1_545  S
O1221      C1231   1.263       .  A
O1222      V1647   1.899       .  S
O1222      C1652   1.265       .  A
O1223      V1228   1.885       .  S
O1223      C1232   1.260       .  A
O1224      V1438   1.903   1_546  S
O1224      C1651   1.260       .  A
O1225      V1648   1.869   1_545  S
O1225      C1230   1.257       .  A
V1227      O1430   1.878       .  S
V1227      O1642   1.897       .  S
V1227      V1228   2.089       .  T
V1228      O1434   1.925       .  S
V1228      O1645   1.873       .  S
C1231      O1644   1.269       .  A
C1232      O1642   1.264       .  A
O1233      V1241   1.933       .  S
O1235      C1665   1.256       .  A
O1236      V1661   1.879   1_655  S
O1236      C1246   1.258       .  A
O1237      V1662   1.958       .  S
O1237      C1666   1.279       .  A
O1238      C1245   1.281       .  A
O1239      V1242   1.964   1_455  S
O1239      C1244   1.279       .  A
O1240      C1243   1.269       .  A
V1241      O1656   1.887       .  S
V1241      V1662   2.077       .  T
V1242      O1657   1.958       .  S
V1242      V1661   2.075   1_655  T
C1245      O1655   1.254       .  A
C1246      O1657   1.278       .  A
O1247      C1257   1.266       .  A
O1250      V1255   1.906       .  S
O1250      C1260   1.260       .  A
O1251      V1256   1.898       .  S
O1251      C1260   1.265       .  A
O1252      C1259   1.271       .  A
O1253      V1256   1.894       .  S
O1253      C1258   1.256       .  A
V1255      V1256   2.081       .  T
O1261      V1269   1.848       .  S
O1261      C1481   1.251       .  A
O1262      V1269   1.836       .  S
O1262      C1272   1.253       .  A
O1263      V1269   1.920       .  S
O1263      C1483   1.268       .  A
O1264      V1269   1.865       .  S
O1264      C1274   1.263       .  A
O1265      V1270   1.854       .  S
O1265      C1484   1.249       .  A
O1266      V1270   1.846       .  S
O1266      C1273   1.256   1_554  A
O1267      V1270   1.920       .  S
O1267      C1482   1.269       .  A
O1268      V1270   1.885       .  S
O1268      C1271   1.266   1_554  A
V1269      V1480   2.085       .  T
V1270      V1479   2.075   1_554  T
C1271      O1471   1.255       .  A
C1271      C1409   1.441       .  S
C1272      O1477   1.267       .  A
C1272      C1514   1.464       .  S
C1273      O1473   1.264       .  A
C1273      C1311   1.454       .  S
C1274      O1475   1.255       .  A
C1274      C1556   1.439       .  S
O1275      V1283   1.869       .  S
O1275      C1285   1.254       .  A
O1276      V1283   1.851       .  S
O1276      C1286   1.259       .  A
O1277      V1283   1.919       .  S
O1277      C1287   1.273       .  A
O1278      V1283   1.918       .  S
O1278      C1288   1.269   1_565  A
O1279      V1284   1.901       .  S
O1280      V1284   1.892       .  S
O1281      V1284   1.963       .  S
O1282      V1284   1.964       .  S
C1285      C1388   1.487       .  S
C1286      C1318   1.493       .  S
C1287      C1339   1.466       .  S
C1288      C1423   1.480       .  S
O1289      V1297   1.883       .  S
O1289      C1299   1.263       .  A
O1290      V1297   1.882       .  S
O1290      C1300   1.266   1_655  A
O1291      V1297   1.940       .  S
O1291      C1301   1.279       .  A
O1292      V1297   1.931       .  S
O1292      C1302   1.268   1_655  A
O1293      V1298   1.930       .  S
O1294      V1298   1.944       .  S
O1295      V1298   1.959       .  S
O1296      V1298   1.967       .  S
C1299      C1416   1.525       .  S
C1302      C1381   1.504       .  S
N1303      C1307   1.339       .  A
N1303      C1304   1.356       .  A
N1303      C1371   1.445       .  S
C1304      C1482   1.459       .  S
C1304      C1305   1.389       .  A
C1305      C1306   1.377       .  A
C1305      H1308   1.083       .  S
C1306      C1307   1.376       .  A
C1306      H1309   1.083       .  S
C1307      C1336   1.446       .  S
N1310      C1314   1.349       .  A
N1310      C1311   1.356       .  A
N1310      C1470   1.445       .  S
C1311      C1312   1.388   1_556  A
C1312      C1313   1.354       .  A
C1312      H1315   1.082       .  S
C1313      C1314   1.386   1_554  A
C1313      H1316   1.058       .  S
C1314      C1337   1.462       .  S
N1317      C1321   1.358   1_545  A
N1317      C1318   1.358   1_545  A
N1317      C1455   1.457       .  S
C1318      C1319   1.400       .  A
C1319      C1320   1.368       .  A
C1319      H1322   1.083       .  S
C1320      C1321   1.378       .  A
C1320      H1323   1.083       .  S
C1321      C1334   1.453   1_565  S
O1324      V1332   1.871   1_565  S
O1324      C1334   1.256   1_565  A
O1326      C1546   1.263       .  A
O1327      V1542   1.871   1_565  S
O1327      C1337   1.255       .  A
O1328      V1543   1.872   1_565  S
O1328      C1547   1.253       .  A
O1329      C1336   1.264       .  A
O1330      V1333   1.885   1_554  S
O1330      C1335   1.258   1_545  A
V1332      O1537   1.865   1_545  S
V1332      V1543   2.086       .  T
V1333      O1538   1.902   1_545  S
V1333      V1542   2.079       .  T
C1335      C1342   1.486       .  S
C1336      O1536   1.256       .  A
C1337      O1538   1.267       .  A
N1338      C1342   1.360       .  A
N1338      C1339   1.364       .  A
N1338      C1407   1.447       .  S
C1339      C1340   1.379       .  A
C1340      C1341   1.367       .  A
C1340      H1343   1.079       .  S
C1341      C1342   1.379       .  A
C1341      H1344   1.082       .  S
N1345      C1349   1.347       .  A
N1345      C1346   1.335       .  A
N1345      C1372   1.445       .  S
C1346      C1484   1.428       .  S
C1346      C1347   1.383       .  A
C1347      C1348   1.368       .  A
C1347      H1350   1.082       .  S
C1348      C1349   1.378       .  A
C1348      H1351   1.083       .  S
C1349      C1440   1.427       .  S
N1352      C1356   1.395       .  A
N1352      C1353   1.403       .  A
N1352      C1453   1.481       .  S
C1353      C1354   1.377       .  A
C1354      H1357   1.083       .  S
C1355      H1358   1.069       .  S
C1356      C1369   1.521       .  S
O1360      V1577   1.915       .  S
O1360      C1370   1.269       .  A
O1361      V1367   1.864       .  S
O1361      C1581   1.255       .  A
O1362      C1372   1.261       .  A
O1363      C1582   1.260       .  A
O1364      V1368   1.892       .  S
O1364      C1371   1.267       .  A
O1366      V1578   1.933       .  S
O1366      C1369   1.264       .  A
V1367      O1570   1.921       .  S
V1367      V1578   2.083       .  T
V1368      O1576   1.908   1_554  S
V1368      V1577   2.083       .  T
C1370      C1377   1.474       .  S
C1371      O1571   1.260       .  A
C1372      O1573   1.263       .  A
N1373      C1377   1.361       .  A
N1373      C1374   1.374       .  A
N1373      C1404   1.473       .  S
C1374      C1375   1.401       .  A
C1375      C1376   1.374       .  A
C1375      H1378   1.084       .  S
C1376      C1377   1.374       .  A
C1376      H1379   1.082       .  S
N1380      C1384   1.385       .  A
N1380      C1381   1.390       .  A
N1380      C1405   1.478       .  S
C1381      C1382   1.380       .  A
C1382      C1383   1.355       .  A
C1382      H1385   1.084       .  S
C1383      C1384   1.374       .  A
C1383      H1386   1.079       .  S
N1387      C1391   1.367       .  A
N1387      C1388   1.358       .  A
N1387      C1406   1.448       .  S
C1388      C1389   1.390       .  A
C1389      C1390   1.364       .  A
C1389      H1392   1.083       .  S
C1390      C1391   1.369       .  A
C1390      H1393   1.083       .  S
C1391      C1442   1.468       .  S
O1394      C1404   1.269       .  A
O1395      V1402   1.936       .  S
O1395      C1405   1.274       .  A
O1397      C1407   1.257       .  A
O1399      V1403   1.927   1_655  S
O1399      C1406   1.274       .  A
V1402      V1403   2.078       .  T
N1408      C1412   1.341       .  A
N1408      C1409   1.341       .  A
N1408      C1469   1.431       .  S
C1409      C1410   1.391       .  A
C1410      C1411   1.372       .  A
C1410      H1413   1.083       .  S
C1411      C1412   1.373       .  A
C1411      H1414   1.082       .  S
C1412      C1439   1.431       .  S
N1415      C1419   1.360       .  A
N1415      C1416   1.380       .  A
N1415      C1454   1.482       .  S
C1416      C1417   1.392       .  A
C1417      H1420   1.084       .  S
C1418      H1421   1.071       .  S
N1422      C1426   1.372       .  A
N1422      C1423   1.363       .  A
N1422      C1456   1.450       .  S
C1423      C1424   1.379       .  A
C1424      C1425   1.369       .  A
C1424      H1427   1.083       .  S
C1425      C1426   1.382       .  A
C1425      H1428   1.082       .  S
C1426      C1441   1.488       .  S
O1429      V1437   1.865   1_556  S
O1429      C1439   1.254       .  A
O1430      C1650   1.255       .  A
O1431      V1647   1.901   1_545  S
O1431      C1441   1.266       .  A
O1433      V1438   1.900       .  S
O1433      C1442   1.262       .  A
O1435      C1440   1.251       .  A
O1436      V1648   1.864       .  S
O1436      C1649   1.254       .  A
V1437      O1641   1.889   1_564  S
V1437      V1438   2.086       .  T
V1438      O1646   1.875   1_554  S
C1439      O1646   1.259       .  A
C1440      O1640   1.257       .  A
O1443      V1451   1.926       .  S
O1446      C1456   1.263       .  A
O1448      C1455   1.270       .  A
O1449      V1452   1.947   1_565  S
O1449      C1454   1.276       .  A
O1450      C1453   1.278       .  A
O1457      V1675   1.909       .  S
O1457      C1467   1.271       .  A
O1459      C1679   1.262       .  A
O1460      V1465   1.879       .  S
O1460      C1470   1.260       .  A
O1461      V1466   1.885       .  S
O1461      C1470   1.271       .  A
O1462      C1469   1.261       .  A
O1463      V1466   1.909   1_554  S
O1463      C1468   1.257       .  A
V1465      O1667   1.901       .  S
V1465      V1466   2.085       .  T
C1469      O1669   1.256       .  A
O1471      V1479   1.866       .  S
O1472      V1479   1.851   1_554  S
O1472      C1482   1.258       .  A
O1473      V1479   1.908       .  S
O1474      V1479   1.894   1_554  S
O1474      C1484   1.270       .  A
O1475      V1480   1.884       .  S
O1476      V1480   1.845       .  S
O1476      C1483   1.255       .  A
O1477      V1480   1.921       .  S
O1478      V1480   1.925       .  S
O1478      C1481   1.275       .  A
C1481      C1619   1.458       .  S
C1483      C1521   1.452       .  S
O1485      V1493   1.885       .  S
O1485      C1495   1.263       .  A
O1486      V1493   1.899   1_545  S
O1486      C1496   1.257       .  A
O1487      V1493   1.948       .  S
O1487      C1497   1.275   1_565  A
O1488      V1493   1.927       .  S
O1488      C1498   1.277   1_565  A
O1489      V1494   1.898       .  S
O1490      V1494   1.883       .  S
O1491      V1494   1.932       .  S
O1492      V1494   1.942       .  S
C1495      C1598   1.503       .  S
C1496      C1528   1.504       .  S
C1497      C1549   1.490       .  S
C1498      C1633   1.464       .  S
O1499      V1507   1.865       .  S
O1499      C1509   1.260       .  A
O1500      V1507   1.872       .  S
O1500      C1510   1.259       .  A
O1501      V1507   1.952       .  S
O1501      C1511   1.284       .  A
O1502      V1507   1.946       .  S
O1502      C1512   1.273   1_655  A
O1503      V1508   1.892       .  S
O1504      V1508   1.916       .  S
O1505      V1508   1.978       .  S
O1506      V1508   1.978       .  S
C1509      C1626   1.538       .  S
C1512      C1591   1.494       .  S
N1513      C1517   1.338       .  A
N1513      C1514   1.349       .  A
N1513      C1581   1.416       .  S
C1514      C1515   1.403       .  A
C1515      C1516   1.381       .  A
C1515      H1518   1.082       .  S
C1516      C1517   1.373       .  A
C1516      H1519   1.082       .  S
C1517      C1546   1.440       .  S
N1520      C1524   1.352       .  A
N1520      C1521   1.358       .  A
N1520      C1680   1.447       .  S
C1521      C1522   1.382       .  A
C1522      C1523   1.374       .  A
C1522      H1525   1.080       .  S
C1523      C1524   1.379       .  A
C1523      H1526   1.083       .  S
C1524      C1547   1.465       .  S
N1527      C1531   1.365       .  A
N1527      C1528   1.375       .  A
N1527      C1665   1.456       .  S
C1528      C1529   1.390       .  A
C1529      C1530   1.374       .  A
C1529      H1532   1.083       .  S
C1530      C1531   1.376       .  A
C1530      H1533   1.082       .  S
C1531      C1544   1.496       .  S
O1534      V1542   1.933       .  S
O1534      C1544   1.272       .  A
O1537      C1547   1.255       .  A
O1539      C1546   1.256       .  A
O1540      V1543   1.920       .  S
O1540      C1545   1.273       .  A
C1545      C1552   1.482       .  S
N1548      C1552   1.377       .  A
N1548      C1549   1.362       .  A
N1548      C1617   1.449   1_545  S
C1549      C1550   1.387       .  A
C1550      C1551   1.360       .  A
C1550      H1553   1.082       .  S
C1551      C1552   1.369       .  A
C1551      H1554   1.082       .  S
N1555      C1559   1.335       .  A
N1555      C1556   1.333       .  A
N1555      C1582   1.426       .  S
C1556      C1557   1.377       .  A
C1557      C1558   1.385       .  A
C1557      H1560   1.081       .  S
C1558      C1559   1.376       .  A
C1558      H1561   1.078       .  S
C1559      C1650   1.440       .  S
N1562      C1566   1.385       .  A
N1562      C1563   1.402       .  A
N1562      C1663   1.487       .  S
C1563      C1564   1.382       .  A
C1564      H1567   1.084       .  S
C1565      H1568   1.083       .  S
C1566      C1579   1.505       .  S
O1570      C1580   1.271       .  A
O1571      V1577   1.899       .  S
O1572      C1582   1.254       .  A
O1574      V1578   1.866       .  S
O1574      C1581   1.265       .  A
O1576      C1579   1.259       .  A
C1580      C1587   1.483       .  S
N1583      C1587   1.360       .  A
N1583      C1584   1.375       .  A
N1583      C1614   1.469       .  S
C1584      C1585   1.403       .  A
C1585      C1586   1.379       .  A
C1585      H1588   1.084       .  S
C1586      C1587   1.374       .  A
C1586      H1589   1.082       .  S
N1590      C1594   1.383       .  A
N1590      C1591   1.390       .  A
N1590      C1615   1.488       .  S
C1591      C1592   1.382       .  A
C1592      C1593   1.344       .  A
C1592      H1595   1.084       .  S
C1593      C1594   1.374       .  A
C1593      H1596   1.081       .  S
N1597      C1601   1.364       .  A
N1597      C1598   1.363       .  A
N1597      C1616   1.456       .  S
C1598      C1599   1.394       .  A
C1599      C1600   1.367       .  A
C1599      H1602   1.083       .  S
C1600      C1601   1.372       .  A
C1600      H1603   1.083       .  S
C1601      C1652   1.472       .  S
O1604      C1614   1.270       .  A
O1605      V1612   1.939       .  S
O1605      C1615   1.275       .  A
O1607      C1617   1.259       .  A
O1609      V1613   1.945   1_655  S
O1609      C1616   1.276       .  A
V1612      V1613   2.073       .  T
N1618      C1622   1.346       .  A
N1618      C1619   1.348       .  A
N1618      C1679   1.441       .  S
C1619      C1620   1.391       .  A
C1620      C1621   1.357       .  A
C1620      H1623   1.083       .  S
C1621      C1622   1.366       .  A
C1621      H1624   1.082       .  S
C1622      C1649   1.413       .  S
N1625      C1629   1.353       .  A
N1625      C1626   1.373       .  A
N1625      C1664   1.481       .  S
C1626      C1627   1.398       .  A
C1627      H1630   1.084       .  S
C1628      H1631   1.072       .  S
N1632      C1636   1.377       .  A
N1632      C1633   1.367       .  A
N1632      C1666   1.459       .  S
C1633      C1634   1.370       .  A
C1634      C1635   1.353       .  A
C1634      H1637   1.069       .  S
C1635      C1636   1.373       .  A
C1635      H1638   1.082       .  S
C1636      C1651   1.477       .  S
O1639      V1647   1.857       .  S
O1639      C1649   1.254       .  A
O1641      C1651   1.269       .  A
O1643      V1648   1.892       .  S
O1643      C1652   1.261       .  A
O1645      C1650   1.258       .  A
V1647      V1648   2.090       .  T
O1653      V1661   1.947   1_655  S
O1656      C1666   1.259       .  A
O1658      C1665   1.278       .  A
O1659      V1662   1.950   1_565  S
O1659      C1664   1.275       .  A
O1660      C1663   1.271       .  A
O1667      C1677   1.266       .  A
O1670      V1675   1.901       .  S
O1670      C1680   1.259       .  A
O1671      V1676   1.885       .  S
O1671      C1680   1.261       .  A
O1672      C1679   1.268       .  A
O1673      V1676   1.885       .  S
O1673      C1678   1.252       .  A
V1675      V1676   2.082       .  T
