geometry optimzed in LAMMPS
_audit_creation_date              2020-11-30 
_audit_creation_method            'lammps2cif' 
_symmetry_space_group_name_H-M    'P1' 
_symmetry_Int_Tables_number       1 
_symmetry_cell_setting            triclinic 
loop_ 
_symmetry_equiv_pos_as_xyz 
  x,y,z 
_cell_length_a                    25.44761347 
_cell_length_b                    25.475273282758952 
_cell_length_c                    25.683522486927533 
_cell_angle_alpha                 90.18282683087709 
_cell_angle_beta                  89.60141642883876 
_cell_angle_gamma                 90.0559418608491 
loop_ 
_atom_site_label 
_atom_site_type_symbol 
_atom_site_fract_x 
_atom_site_fract_y 
_atom_site_fract_z 
_atom_site_charge 
N1          N  0.50496009  0.58123052  0.01111033    -0.36600
N2          N  0.58157807  0.49722743  0.00942865    -0.57200
N3          N  0.49749968  0.42126203  0.01164552    -0.36600
N4          N  0.42069163  0.50516084  0.01017929    -0.57200
C5          C  0.54893459  0.60758019  0.99728935     0.26900
C6          C  0.46376782  0.61229818  0.99951559     0.26900
C7          C  0.53902014  0.38989692  0.00081796     0.26900
C8          C  0.45363000  0.39415254  0.99944153     0.26900
C9          C  0.61360217  0.53840699  0.01830888     0.35600
C10         C  0.60946975  0.45384802  0.02077481     0.35600
C11         C  0.39180833  0.54897581  0.01761515     0.35600
C12         C  0.38753474  0.46420899  0.01615662     0.35600
C13         C  0.53558920  0.65616165  0.97710847    -0.21900
C14         C  0.48169510  0.65910607  0.97841026    -0.21900
C15         C  0.52137887  0.34205422  0.98193977    -0.21900
C16         C  0.46739798  0.34475200  0.98099226    -0.21900
C17         C  0.66217439  0.52128486  0.03536187    -0.23000
C18         C  0.65954683  0.46746668  0.03696785    -0.23000
C19         C  0.33986942  0.53582702  0.02791726    -0.23000
C20         C  0.33713848  0.48201436  0.02683147    -0.23000
C21         C  0.60075587  0.59067747  0.00651705    -0.18300
C22         C  0.41062607  0.60053162  0.00993870    -0.18300
C23         C  0.40154184  0.41116506  0.00861902    -0.18300
C24         C  0.59208923  0.40233853  0.01079629    -0.18300
H25         H  0.56198797  0.68657940  0.96348695     0.14600
H26         H  0.45838448  0.69219689  0.96587390     0.14600
H27         H  0.54492359  0.30849170  0.97062801     0.14600
H28         H  0.44122053  0.31355739  0.96893257     0.14600
H29         H  0.69626945  0.54500507  0.04430149     0.12900
H30         H  0.69129626  0.44131037  0.04724093     0.12900
H31         H  0.30713711  0.56224369  0.03425289     0.12900
H32         H  0.30195846  0.45871849  0.03236542     0.12900
H33         H  0.50336739  0.54688387  0.03308007     0.26100
H34         H  0.49876755  0.45647156  0.03238552     0.26100
N35         N  0.50332755  0.00714315  0.59019665    -0.36600
N36         N  0.42216504  0.00195403  0.51175625    -0.57200
N37         N  0.50188733  0.99556663  0.43204769    -0.36600
N38         N  0.58339805  0.99842044  0.50980867    -0.57200
C39         C  0.46010950  0.99864955  0.61987044     0.26900
C40         C  0.54552203  0.99348150  0.61880762     0.26900
C41         C  0.45905664  0.97906828  0.40573162     0.26900
C42         C  0.54451840  0.98116912  0.40389708     0.26900
C43         C  0.39325590  0.01806327  0.55296963     0.35600
C44         C  0.39216794  0.00892016  0.46922515     0.35600
C45         C  0.61429306  0.00805205  0.55138546     0.35600
C46         C  0.61323839  0.00667591  0.46682345     0.35600
C47         C  0.47500232  0.98006066  0.66827191    -0.21900
C48         C  0.52891613  0.97615534  0.66737174    -0.21900
C49         C  0.47469404  0.95346379  0.36052145    -0.21900
C50         C  0.52878404  0.95458952  0.35948555    -0.21900
C51         C  0.34451399  0.03556353  0.53664237    -0.23000
C52         C  0.34397246  0.03011862  0.48330962    -0.23000
C53         C  0.66426541  0.02219009  0.53485767    -0.23000
C54         C  0.66350140  0.02173755  0.48121305    -0.23000
C55         C  0.40792085  0.00987838  0.60510968    -0.18300
C56         C  0.59858860  0.00076623  0.60384471    -0.18300
C57         C  0.59674167  0.99567619  0.41528953    -0.18300
C58         C  0.40654643  0.99159988  0.41891226    -0.18300
H59         H  0.44970364  0.97054648  0.70095577     0.14600
H60         H  0.55322911  0.96347512  0.69936600     0.14600
H61         H  0.44967573  0.93687523  0.33078465     0.14600
H62         H  0.55369072  0.93897136  0.32882838     0.14600
H63         H  0.31222781  0.04917612  0.56076933     0.12900
H64         H  0.31126675  0.03883599  0.45805755     0.12900
H65         H  0.69780468  0.03139568  0.55892719     0.12900
H66         H  0.69651695  0.03020357  0.45580621     0.12900
H67         H  0.50418965  0.02701176  0.55461620     0.26100
H68         H  0.50206233  0.02171034  0.46348271     0.26100
N69         N  0.98286212  0.58032976  0.50647496    -0.36600
N70         N  0.99175001  0.49928930  0.58612339    -0.57200
N71         N  0.98798762  0.41922886  0.50570322    -0.36600
N72         N  0.98373376  0.50058651  0.42599290    -0.57200
C73         C  0.99443143  0.60955774  0.54889076     0.26900
C74         C  0.99358462  0.61008847  0.46412826     0.26900
C75         C  0.00042821  0.38889990  0.54704710     0.26900
C76         C  0.99441317  0.38966440  0.46233268     0.26900
C77         C  0.98242373  0.54131741  0.61712386     0.35600
C78         C  0.98825059  0.45633726  0.61682396     0.35600
C79         C  0.97696029  0.54313112  0.39551802     0.35600
C80         C  0.97673395  0.45822789  0.39510665     0.35600
C81         C  0.01222378  0.65860553  0.53341466    -0.21900
C82         C  0.01180773  0.65889548  0.47988871    -0.21900
C83         C  0.01386757  0.33905049  0.52969041    -0.21900
C84         C  0.01035731  0.33959969  0.47629481    -0.21900
C85         C  0.97355323  0.52505030  0.66787379    -0.23000
C86         C  0.97753195  0.47127951  0.66774468    -0.23000
C87         C  0.96612630  0.52779031  0.34490142    -0.23000
C88         C  0.96592633  0.47397232  0.34463851    -0.23000
C89         C  0.98619145  0.59433665  0.60117410    -0.18300
C90         C  0.98449737  0.59553829  0.41177686    -0.18300
C91         C  0.98377623  0.40556517  0.41066319    -0.18300
C92         C  0.99704280  0.40398266  0.60013813    -0.18300
H93         H  0.02378040  0.69103468  0.55815379     0.14600
H94         H  0.02292248  0.69161171  0.45537276     0.14600
H95         H  0.02466159  0.30553008  0.55307105     0.14600
H96         H  0.01798421  0.30658312  0.45072006     0.14600
H97         H  0.96591615  0.54944611  0.70165912     0.12900
H98         H  0.97328959  0.44612657  0.70139370     0.12900
H99         H  0.95988717  0.55274166  0.31147788     0.12900
H100        H  0.95950526  0.44926926  0.31090587     0.12900
H101        H  0.96288633  0.54470027  0.50680057     0.26100
H102        H  0.97069360  0.45609772  0.50717016     0.26100
C103        C  0.24350994  0.24961576  0.00446511     0.80200
N104        N  0.25907097  0.19830905  0.00905813    -0.78100
C105        C  0.22236192  0.16083306  0.01866321     0.82600
N106        N  0.17177520  0.17536067  0.02478374    -0.78100
C107        C  0.15530753  0.22492432  0.01700716     0.82700
N108        N  0.19140248  0.26277314  0.00704937    -0.79800
C109        C  0.25095071  0.75868988  0.99504604     0.80200
N110        N  0.26444458  0.81072538  0.99816873    -0.78100
C111        C  0.22615854  0.84704356  0.00495727     0.82600
N112        N  0.17604220  0.83087468  0.00976222    -0.78100
C113        C  0.16174337  0.78013410  0.00599249     0.82700
N114        N  0.19941638  0.74325396  0.99853873    -0.79800
C115        C  0.24885433  0.00828587  0.76569403     0.80200
N116        N  0.19729743  0.00358966  0.75117941    -0.78100
C117        C  0.15959983  0.99987930  0.78855055     0.82600
N118        N  0.17391621  0.00057968  0.83891716    -0.78100
C119        C  0.22410238  0.00587182  0.85412127     0.82700
N120        N  0.26245957  0.00945730  0.81729051    -0.79800
O121        O  0.27556653  0.08081238  0.01087367    -0.71800
O122        O  0.27753729  0.92843265  0.00765771    -0.72000
O123        O  0.27610553  0.00559146  0.93383077    -0.71900
O124        O  0.27790886  0.00339998  0.08471788    -0.71900
O125        O  0.19287235  0.99735438  0.08277235    -0.71900
O126        O  0.19097155  0.00932574  0.93836157    -0.71900
O127        O  0.19235703  0.93091877  0.00442482    -0.71800
O128        O  0.19061172  0.07594759  0.01718722    -0.72000
V129        V  0.27577441  0.00458698  0.00923966     1.35200
V130        V  0.19390334  0.00345713  0.01060875     1.35200
C131        C  0.23137234  0.10375141  0.01558279     0.77400
C132        C  0.23383273  0.90428187  0.00529216     0.77500
C133        C  0.23209336  0.00758205  0.91088172     0.77400
C134        C  0.23442699  0.99967059  0.10902071     0.77300
C135        C  0.25153087  0.99905620  0.25447658     0.80200
N136        N  0.19934687  0.99848173  0.26920928    -0.78100
C137        C  0.16165192  0.99925938  0.23187630     0.82600
N138        N  0.17651511  0.99965200  0.18164826    -0.78100
C139        C  0.22689245  0.99923139  0.16602479     0.82700
N140        N  0.26522042  0.99886470  0.20257993    -0.79800
C141        C  0.75200281  0.24259117  0.01612887     0.80200
N142        N  0.80345407  0.25824133  0.01061470    -0.78100
C143        C  0.84118408  0.22140060  0.00221591     0.82600
N144        N  0.82685874  0.17069441  0.99881020    -0.78100
C145        C  0.77724100  0.15433710  0.00682381     0.82700
N146        N  0.73899616  0.19041837  0.01512683    -0.79800
C147        C  0.00296479  0.24663769  0.76239216     0.80200
N148        N  0.00315144  0.26147595  0.81392563    -0.78100
C149        C  0.00534846  0.22378094  0.85125205     0.82600
N150        N  0.00704649  0.17308165  0.83657458    -0.78100
C151        C  0.00583670  0.15744034  0.78660561     0.82700
N152        N  0.00405000  0.19443991  0.74865932    -0.79800
O153        O  0.00716620  0.19101076  0.93497503    -0.71800
O154        O  0.99054107  0.18911326  0.07891724    -0.72000
O155        O  0.92620047  0.18970232  0.99892224    -0.71900
O156        O  0.07124452  0.19047486  0.01494642    -0.71900
O157        O  0.07416295  0.27536070  0.00822653    -0.71900
O158        O  0.92172324  0.27430626  0.00789531    -0.71900
O159        O  0.99770947  0.27392497  0.08338373    -0.71800
O160        O  0.99867715  0.27567923  0.93212348    -0.72000
V161        V  0.99869740  0.19222049  0.00688588     1.35200
V162        V  0.99803216  0.27390531  0.00784783     1.35200
C163        C  0.00397333  0.23215948  0.90822778     0.77400
C164        C  0.99399209  0.22990225  0.10637666     0.77500
C165        C  0.89847674  0.23041736  0.00265274     0.77400
C166        C  0.09808068  0.23188563  0.01327073     0.77300
C167        C  0.99377823  0.24635441  0.25134636     0.80200
N168        N  0.99310785  0.25979077  0.19973285    -0.78100
C169        C  0.99573634  0.22146326  0.16309559     0.82600
N170        N  0.00006607  0.17118344  0.17849328    -0.78100
C171        C  0.00056924  0.15687025  0.22900825     0.82700
N172        N  0.99671724  0.19470197  0.26621737    -0.79800
C173        C  0.99903601  0.75277442  0.25096133     0.80200
N174        N  0.00048360  0.73901421  0.19922104    -0.78100
C175        C  0.00417264  0.77727123  0.16268293     0.82600
N176        N  0.00633829  0.82767244  0.17837892    -0.78100
C177        C  0.00372114  0.84225366  0.22881212     0.82700
N178        N  0.99959691  0.80457231  0.26583610    -0.79800
C179        C  0.75686397  0.99254991  0.25368912     0.80200
N180        N  0.74286048  0.99447200  0.20218860    -0.78100
C181        C  0.78090017  0.99864286  0.16510843     0.82600
N182        N  0.83137675  0.00214675  0.17990081    -0.78100
C183        C  0.84630155  0.99987455  0.22996107     0.82700
N184        N  0.80884230  0.99515256  0.26761850    -0.79800
O185        O  0.00221933  0.07615120  0.28195262    -0.71800
O186        O  0.00352446  0.92312087  0.28183891    -0.72000
O187        O  0.07953497  0.00010319  0.28325655    -0.71900
O188        O  0.92689555  0.99896438  0.28178851    -0.71900
O189        O  0.93135029  0.00033373  0.19739185    -0.71900
O190        O  0.07742942  0.99859385  0.19884863    -0.71900
O191        O  0.00355692  0.92681192  0.19746332    -0.71800
O192        O  0.00528770  0.07215323  0.19761236    -0.72000
V193        V  0.00313282  0.99960450  0.28124859     1.35200
V194        V  0.00441298  0.99946980  0.20012182     1.35200
C195        C  0.00304562  0.09963861  0.23819986     0.77400
C196        C  0.00347417  0.89949815  0.23803441     0.77500
C197        C  0.10405737  0.99924275  0.23997332     0.77400
C198        C  0.90364523  0.99970967  0.23816199     0.77300
C199        C  0.75882559  0.75182342  0.00982408     0.80200
N200        N  0.74440564  0.80366769  0.00972646    -0.78100
C201        C  0.78227852  0.84106617  0.00852439     0.82600
N202        N  0.83287983  0.82627535  0.00747716    -0.78100
C203        C  0.84800229  0.77574904  0.00700871     0.82700
N204        N  0.81079799  0.73762944  0.00782640    -0.79800
C205        C  0.99256923  0.75333599  0.76229309     0.80200
N206        N  0.99375036  0.80538750  0.74844976    -0.78100
C207        C  0.00222442  0.84234926  0.78575569     0.82600
N208        N  0.00906213  0.82686847  0.83522247    -0.78100
C209        C  0.00541149  0.77647741  0.85024249     0.82700
N210        N  0.99721612  0.73886905  0.81354810    -0.79800
C211        C  0.75659674  0.98946592  0.76451158     0.80200
N212        N  0.74198216  0.99248225  0.81612426    -0.78100
C213        C  0.77952391  0.00008451  0.85283755     0.82600
N214        N  0.82980621  0.00569714  0.83735272    -0.78100
C215        C  0.84529724  0.00131354  0.78733728     0.82700
N216        N  0.80851222  0.99320852  0.75021831    -0.79800
O217        O  0.81206061  0.07109245  0.01344207    -0.71800
O218        O  0.81423161  0.92570536  0.00410939    -0.72000
O219        O  0.81270988  0.00304948  0.93652927    -0.70100
O220        O  0.81366923  0.99394757  0.08103364    -0.71900
O221        O  0.72860859  0.99910223  0.08530766    -0.71900
O222        O  0.72789477  0.99477965  0.93408097    -0.71900
O223        O  0.72933799  0.92098055  0.01175714    -0.71800
O224        O  0.72696854  0.07276677  0.00782688    -0.72000
V225        V  0.81101757  0.99835251  0.00882464     1.35200
V226        V  0.72918202  0.99690538  0.00975989     1.35200
C227        C  0.77038708  0.09726940  0.01012023     0.77400
C228        C  0.77347082  0.89801135  0.00793054     0.77500
C229        C  0.77150431  0.99929974  0.90995665     0.77400
C230        C  0.77258955  0.99682199  0.10839672     0.77300
O231        O  0.00500926  0.07289766  0.81975700    -0.71800
O232        O  0.99950111  0.92677045  0.81936374    -0.72000
O233        O  0.07483205  0.99711688  0.82020238    -0.71900
O234        O  0.92946120  0.00249659  0.81974870    -0.71900
O235        O  0.92666813  0.99955351  0.73535611    -0.71900
O236        O  0.07938071  0.99997190  0.73585227    -0.71900
O237        O  0.00281597  0.92364721  0.73494373    -0.71800
O238        O  0.00320122  0.07597204  0.73536202    -0.72000
V239        V  0.00218415  0.99981316  0.81753633     1.35200
V240        V  0.00299216  0.99977922  0.73638371     1.35200
C241        C  0.00469474  0.09994311  0.77880520     0.77400
C242        C  0.00102041  0.89973758  0.77826526     0.77500
C243        C  0.10252070  0.99861229  0.77960371     0.77400
C244        C  0.90261579  0.00115025  0.77893610     0.77300
O245        O  0.00633854  0.72532487  0.08195500    -0.71800
O246        O  0.00416537  0.72465763  0.93072906    -0.72000
O247        O  0.08170988  0.72629364  0.00459750    -0.71900
O248        O  0.92920201  0.72403047  0.00789185    -0.71900
O249        O  0.93185486  0.80907816  0.00374489    -0.71900
O250        O  0.07699133  0.81125345  0.00901283    -0.71900
O251        O  0.00756637  0.80971776  0.93405941    -0.71800
O252        O  0.00131741  0.81029132  0.07881586    -0.72000
V253        V  0.00539781  0.72604346  0.00632493     1.35200
V254        V  0.00443339  0.80783230  0.00639020     1.35200
C255        C  0.00371297  0.76917399  0.10568259     0.77400
C256        C  0.00583791  0.76842759  0.90712199     0.77500
C257        C  0.10473270  0.77060460  0.00663277     0.77400
C258        C  0.90513780  0.76767624  0.00595524     0.77300
C259        C  0.94543904  0.70622735  0.69203229    -0.05800
C260        C  0.99141274  0.71261634  0.72127249     0.00100
C261        C  0.03605553  0.68137737  0.70991506    -0.08500
C262        C  0.03271216  0.64337575  0.67032070    -0.05800
C263        C  0.98646841  0.63603560  0.64194128     0.00100
C264        C  0.94202846  0.66791244  0.65246144    -0.08400
C265        C  0.89122601  0.66071785  0.62254803     0.62000
H266        H  0.91207285  0.73115664  0.70086819     0.12700
H267        H  0.06610684  0.61846327  0.66150185     0.12700
C268        C  0.08695527  0.68763654  0.73976069     0.62200
F269        F  0.85184548  0.69345203  0.64098663    -0.22900
F270        F  0.87399681  0.60942959  0.62724242    -0.20200
F271        F  0.89936752  0.67190724  0.57048797    -0.19900
F272        F  0.08096341  0.66618254  0.78881352    -0.20000
F273        F  0.10010134  0.74014463  0.74445040    -0.20300
F274        F  0.12831580  0.66252234  0.71482137    -0.23000
C275        C  0.95320367  0.33993504  0.65875310    -0.05800
C276        C  0.00034800  0.36221233  0.64070215     0.00100
C277        C  0.04866467  0.34670928  0.66311215    -0.08500
C278        C  0.04802347  0.30852351  0.70275329    -0.05800
C279        C  0.00075441  0.28693269  0.72121112     0.00100
C280        C  0.95252164  0.30314633  0.69953799    -0.08400
C281        C  0.90057571  0.28368360  0.72146408     0.62000
H282        H  0.91671360  0.35312589  0.64174604     0.12700
H283        H  0.08443549  0.29542237  0.71999136     0.12700
C284        C  0.10041005  0.37084288  0.64563157     0.62200
F285        F  0.85838034  0.30110111  0.69253151    -0.22900
F286        F  0.89465880  0.30203341  0.77190580    -0.20200
F287        F  0.89938016  0.22942277  0.72173222    -0.19900
F288        F  0.14231678  0.35203030  0.67414733    -0.20000
F289        F  0.09860611  0.42472102  0.65197329    -0.20300
F290        F  0.10967770  0.35927903  0.59377615    -0.23000
C291        C  0.03405900  0.64180859  0.34236610    -0.05800
C292        C  0.98719134  0.63681289  0.37098212     0.00100
C293        C  0.94389617  0.66964031  0.35976163    -0.08500
C294        C  0.94916773  0.70693330  0.31978513    -0.05800
C295        C  0.99598985  0.71177726  0.29112413     0.00100
C296        C  0.03936350  0.67920319  0.30254916    -0.08400
C297        C  0.09148660  0.68545693  0.27413388     0.62000
H298        H  0.06655795  0.61620562  0.35182298     0.12700
H299        H  0.91671471  0.73264654  0.31044046     0.12700
C300        C  0.89240052  0.66477849  0.38955029     0.62200
F301        F  0.12924973  0.65143367  0.29285208    -0.22900
F302        F  0.10970558  0.73622695  0.28057056    -0.20200
F303        F  0.08519589  0.67530769  0.22164321    -0.19900
F304        F  0.90036766  0.67538843  0.44170219    -0.20000
F305        F  0.87281018  0.61440306  0.38429927    -0.20300
F306        F  0.85491917  0.69947568  0.37147573    -0.23000
C307        C  0.03134863  0.35822871  0.34089411    -0.05800
C308        C  0.98466207  0.36477943  0.36935080     0.00100
C309        C  0.94025994  0.33338149  0.35818784    -0.08500
C310        C  0.94488351  0.29438642  0.31956250    -0.05800
C311        C  0.99167212  0.28784055  0.29113491     0.00100
C312        C  0.03543113  0.32054116  0.30113959    -0.08400
C313        C  0.08597142  0.31587761  0.26975581     0.62000
H314        H  0.06435499  0.38352154  0.34979113     0.12700
H315        H  0.91178042  0.26924305  0.31060476     0.12700
C316        C  0.88821567  0.34217994  0.38611241     0.62200
F317        F  0.12560299  0.34683030  0.29019033    -0.22900
F318        F  0.07710036  0.33180348  0.21915997    -0.20200
F319        F  0.10322184  0.26441264  0.26947028    -0.19900
F320        F  0.87094131  0.39277562  0.37703458    -0.20000
F321        F  0.89420308  0.33515694  0.43907397    -0.20300
F322        F  0.84985922  0.30771877  0.36909532    -0.23000
C323        C  0.68476782  0.03537886  0.72001809    -0.05800
C324        C  0.71604096  0.99032786  0.72369249     0.00100
C325        C  0.70942220  0.94875915  0.68757596    -0.08500
C326        C  0.67080745  0.95371560  0.64883706    -0.05800
C327        C  0.63952735  0.99891376  0.64512022     0.00100
C328        C  0.64682295  0.04075836  0.68085736    -0.08400
C329        C  0.61525747  0.09116944  0.67728371     0.62000
H330        H  0.69082056  0.06675490  0.74791964     0.12700
H331        H  0.66449833  0.92226583  0.62109635     0.12700
C332        C  0.74209792  0.89905138  0.69081658     0.62200
F333        F  0.56362456  0.08188232  0.69142237    -0.22900
F334        F  0.61693927  0.11015069  0.62691598    -0.20200
F335        F  0.63485259  0.12979319  0.70986625    -0.19900
F336        F  0.73616163  0.87685163  0.73959027    -0.20000
F337        F  0.79452906  0.91067320  0.68238462    -0.20300
F338        F  0.72710872  0.86221945  0.65403036    -0.23000
C339        C  0.35427825  0.05579883  0.67217427    -0.05800
C340        C  0.36615689  0.00900555  0.64567386     0.00100
C341        C  0.33884709  0.96218768  0.65810305    -0.08500
C342        C  0.30101343  0.96355019  0.69813233    -0.05800
C343        C  0.28988691  0.01000835  0.72527055     0.00100
C344        C  0.31595177  0.05714683  0.71188924    -0.08400
C345        C  0.30282213  0.10839806  0.73929366     0.62000
H346        H  0.37547153  0.09112707  0.66159012     0.12700
H347        H  0.27976865  0.92825599  0.70874851     0.12700
C348        C  0.34959958  0.91118578  0.62909204     0.62200
F349        F  0.32767006  0.15072903  0.71606039    -0.22900
F350        F  0.31861207  0.10584281  0.79062067    -0.20200
F351        F  0.24920581  0.11724339  0.73779973    -0.19900
F352        F  0.34074973  0.91793234  0.57651451    -0.20000
F353        F  0.31742159  0.87090539  0.64631954    -0.20300
F354        F  0.40114246  0.89596795  0.63624533    -0.23000
C355        C  0.67509141  0.95605550  0.37283692    -0.05800
C356        C  0.63637294  0.99523885  0.37212940     0.00100
C357        C  0.63519724  0.03134449  0.33001010    -0.08500
C358        C  0.67537348  0.02891725  0.29217319    -0.05800
C359        C  0.71538596  0.99120831  0.29433302     0.00100
C360        C  0.71375990  0.95235933  0.33359417    -0.08400
C361        C  0.74996204  0.90507490  0.33175580     0.62000
H362        H  0.67403412  0.92758763  0.40406879     0.12700
H363        H  0.67550561  0.05643609  0.26008179     0.12700
C364        C  0.59046484  0.06995593  0.32178812     0.62200
F365        F  0.73569073  0.86768823  0.36823484    -0.22900
F366        F  0.80109176  0.92019716  0.34155404    -0.20200
F367        F  0.74745569  0.88186358  0.28303587    -0.19900
F368        F  0.55034712  0.04508540  0.29529705    -0.20000
F369        F  0.60687525  0.11241909  0.29232533    -0.20300
F370        F  0.57122917  0.08932480  0.36848439    -0.23000
C371        C  0.28939102  0.95725155  0.33278220    -0.05800
C372        C  0.29295751  0.99690869  0.29494719     0.00100
C373        C  0.33515092  0.03340535  0.29712492    -0.08500
C374        C  0.37059231  0.03035974  0.33876285    -0.05800
C375        C  0.36659545  0.99122238  0.37674907     0.00100
C376        C  0.32658997  0.95274464  0.37296065    -0.08400
C377        C  0.32475639  0.90595543  0.40947634     0.62000
H378        H  0.25771496  0.92899145  0.32985060     0.12700
H379        H  0.40234402  0.05850676  0.34203224     0.12700
C380        C  0.34244717  0.07625589  0.25672771     0.62200
F381        F  0.28470126  0.87148856  0.39679433    -0.22900
F382        F  0.31664779  0.92236202  0.46016955    -0.20200
F383        F  0.37179835  0.87893181  0.40640839    -0.19900
F384        F  0.29737627  0.10633393  0.25390667    -0.20000
F385        F  0.35310546  0.05414473  0.20860843    -0.20300
F386        F  0.38394461  0.10926442  0.26877311    -0.23000
C387        C  0.71439660  0.67856841  0.96586116    -0.05800
C388        C  0.71823157  0.71095705  0.00989225     0.00100
C389        C  0.68418757  0.70337936  0.05297438    -0.08500
C390        C  0.64694285  0.66289986  0.05047691    -0.05800
C391        C  0.64287477  0.63070379  0.00640606     0.00100
C392        C  0.67648448  0.63859468  0.96301711    -0.08400
C393        C  0.67165415  0.60563897  0.91389847     0.62000
H394        H  0.74104041  0.68532672  0.93348146     0.12700
H395        H  0.62018469  0.65617716  0.08277119     0.12700
C396        C  0.68794819  0.73707310  0.10166917     0.62200
F397        F  0.70532604  0.62285106  0.87494651    -0.22900
F398        F  0.62089145  0.60833136  0.89523084    -0.20200
F399        F  0.68374327  0.55394842  0.92460493    -0.19900
F400        F  0.67509338  0.78841808  0.09013262    -0.20000
F401        F  0.73858898  0.73531806  0.12079632    -0.20300
F402        F  0.65410119  0.71993159  0.14049891    -0.23000
C403        C  0.70400659  0.31200663  0.97062841    -0.05800
C404        C  0.70986096  0.28205823  0.01585951     0.00100
C405        C  0.67538259  0.28973546  0.05869723    -0.08500
C406        C  0.63690553  0.32913535  0.05533450    -0.05800
C407        C  0.63163074  0.35960173  0.01031690     0.00100
C408        C  0.66469838  0.35038005  0.96672276    -0.08400
C409        C  0.65798835  0.38043335  0.91622953     0.62000
H410        H  0.73033978  0.30463262  0.93810000     0.12700
H411        H  0.61063341  0.33671805  0.08785552     0.12700
C412        C  0.67969712  0.25702312  0.10776599     0.62200
F413        F  0.69205240  0.36276151  0.87775003    -0.22900
F414        F  0.66778427  0.43316282  0.92427720    -0.20200
F415        F  0.60723024  0.37426574  0.89833126    -0.19900
F416        F  0.73043149  0.25937618  0.12660910    -0.20000
F417        F  0.66705664  0.20539898  0.09674790    -0.20300
F418        F  0.64598640  0.27463146  0.14659866    -0.23000
C419        C  0.34130072  0.64579502  0.96101797    -0.05800
C420        C  0.37165396  0.64342098  0.00627363     0.00100
C421        C  0.36340267  0.67999371  0.04711123    -0.08500
C422        C  0.32382247  0.71771871  0.04129159    -0.05800
C423        C  0.29249144  0.71905022  0.99670147     0.00100
C424        C  0.30125635  0.68307417  0.95558202    -0.08400
C425        C  0.26885240  0.68432925  0.90625183     0.62000
H426        H  0.34874299  0.61735051  0.93040523     0.12700
H427        H  0.31637301  0.74614613  0.07192856     0.12700
C428        C  0.39557857  0.67883079  0.09667852     0.62200
F429        F  0.28744740  0.64912937  0.86929237    -0.22900
F430        F  0.27054774  0.73404516  0.88481947    -0.20200
F431        F  0.21731720  0.67134419  0.91769304    -0.19900
F432        F  0.39315256  0.62944620  0.11873566    -0.20000
F433        F  0.37729992  0.71469532  0.13317839    -0.20300
F434        F  0.44734280  0.69103563  0.08549191    -0.23000
C435        C  0.33053357  0.36308409  0.96317897    -0.05800
C436        C  0.35941979  0.37094356  0.00884321     0.00100
C437        C  0.34909209  0.33999931  0.05337773    -0.08500
C438        C  0.31184173  0.29955724  0.04969396    -0.05800
C439        C  0.28317125  0.29145545  0.00401906     0.00100
C440        C  0.29150305  0.32412218  0.96031767    -0.08400
C441        C  0.25965836  0.31736426  0.91102191     0.62000
H442        H  0.33882391  0.38789691  0.92994887     0.12700
H443        H  0.30370764  0.27471475  0.08295696     0.12700
C444        C  0.37582093  0.35117895  0.10492245     0.62200
F445        F  0.27635722  0.35098473  0.87201501    -0.22900
F446        F  0.20733290  0.32791108  0.92140214    -0.20200
F447        F  0.26440886  0.26640563  0.89286032    -0.19900
F448        F  0.36437840  0.40189747  0.12064132    -0.20000
F449        F  0.42962674  0.34577275  0.09973408    -0.20300
F450        F  0.35892635  0.31734956  0.14367122    -0.23000
loop_ 
_geom_bond_atom_site_label_1 
_geom_bond_atom_site_label_2 
_geom_bond_distance 
_geom_bond_site_symmetry_2 
_ccdc_geom_bond_type 
N1            C6   1.350   1_554  A
N1            C5   1.350   1_554  A
N1           H33   1.043       .  S
N2            C9   1.348       .  A
N2           C10   1.348       .  A
N3            C8   1.350   1_554  A
N3            C7   1.352       .  A
N3           H34   1.042       .  S
N4           C11   1.349       .  A
N4           C12   1.350       .  A
C5           C13   1.387       .  A
C5           C21   1.410   1_556  A
C6           C22   1.409   1_556  A
C6           C14   1.387       .  A
C7           C15   1.386   1_554  A
C7           C24   1.412       .  A
C8           C23   1.413   1_556  A
C8           C16   1.388       .  A
C9           C21   1.406       .  A
C9           C17   1.386       .  A
C10          C24   1.408       .  A
C10          C18   1.387       .  A
C11          C19   1.387       .  A
C11          C22   1.411       .  A
C12          C20   1.386       .  A
C12          C23   1.410       .  A
C13          C14   1.374       .  A
C13          H25   1.082       .  S
C14          H26   1.082       .  S
C15          C16   1.376       .  A
C15          H27   1.082       .  S
C16          H28   1.082       .  S
C17          C18   1.373       .  A
C17          H29   1.082       .  S
C18          H30   1.082       .  S
C19          C20   1.373       .  A
C19          H31   1.082       .  S
C20          H32   1.082       .  S
C21         C391   1.479       .  S
C22         C420   1.480       .  S
C23         C436   1.482       .  S
C24         C407   1.483       .  S
N35          C40   1.352   1_545  A
N35          C39   1.351   1_545  A
N35          H67   1.046       .  S
N36          C43   1.348       .  A
N36          C44   1.349       .  A
N37          C42   1.350       .  A
N37          C41   1.352       .  A
N37          H68   1.045   1_565  S
N38          C45   1.352   1_565  A
N38          C46   1.352   1_565  A
C39          C47   1.387       .  A
C39          C55   1.413   1_565  A
C40          C56   1.414   1_565  A
C40          C48   1.387       .  A
C41          C49   1.386       .  A
C41          C58   1.413       .  A
C42          C57   1.411       .  A
C42          C50   1.386       .  A
C43          C55   1.409       .  A
C43          C51   1.387       .  A
C44          C58   1.410   1_545  A
C44          C52   1.386       .  A
C45          C53   1.386       .  A
C45          C56   1.415       .  A
C46          C54   1.387       .  A
C46          C57   1.418   1_545  A
C47          C48   1.376       .  A
C47          H59   1.082       .  S
C48          H60   1.082       .  S
C49          C50   1.377       .  A
C49          H61   1.082       .  S
C50          H62   1.082       .  S
C51          C52   1.377       .  A
C51          H63   1.082       .  S
C52          H64   1.082       .  S
C53          C54   1.378       .  A
C53          H65   1.082       .  S
C54          H66   1.082       .  S
C55         C340   1.483       .  S
C56         C327   1.492   1_545  S
C57         C356   1.493       .  S
C58         C375   1.490       .  S
N69          C74   1.354       .  A
N69          C73   1.352       .  A
N69         H101   1.040       .  S
N70          C77   1.352       .  A
N70          C78   1.353       .  A
N71          C76   1.352       .  A
N71          C75   1.355   1_655  A
N71         H102   1.038       .  S
N72          C79   1.351       .  A
N72          C80   1.350       .  A
C73          C81   1.387   1_655  A
C73          C89   1.413       .  A
C74          C90   1.414       .  A
C74          C82   1.387   1_655  A
C75          C83   1.387       .  A
C75          C92   1.418   1_455  A
C76          C91   1.417       .  A
C76          C84   1.388   1_655  A
C77          C89   1.416       .  A
C77          C85   1.386       .  A
C78          C92   1.417       .  A
C78          C86   1.386       .  A
C79          C87   1.386       .  A
C79          C90   1.411       .  A
C80          C88   1.387       .  A
C80          C91   1.413       .  A
C81          C82   1.375       .  A
C81          H93   1.082       .  S
C82          H94   1.082       .  S
C83          C84   1.375       .  A
C83          H95   1.082       .  S
C84          H96   1.082       .  S
C85          C86   1.374       .  A
C85          H97   1.082       .  S
C86          H98   1.082       .  S
C87          C88   1.371       .  A
C87          H99   1.082       .  S
C88         H100   1.082       .  S
C89         C263   1.489       .  S
C90         C292   1.488       .  S
C91         C308   1.483       .  S
C92         C276   1.494   1_655  S
C103        N104   1.372       .  A
C103        N108   1.369       .  A
C103        C439   1.467       .  S
N104        C105   1.357       .  A
C105        N106   1.348       .  A
C105        C131   1.474       .  S
N106        C107   1.347       .  A
C107        N108   1.355       .  A
C107        C166   1.471       .  S
C109        N110   1.371       .  A
C109        N114   1.371       .  A
C109        C423   1.464       .  S
N110        C111   1.354   1_556  A
C111        N112   1.345       .  A
C111        C132   1.471       .  S
N112        C113   1.346       .  A
C113        N114   1.355   1_554  A
C113        C257   1.471       .  S
C115        N116   1.371       .  A
C115        N120   1.372       .  A
C115        C343   1.468       .  S
N116        C117   1.356   1_545  A
C117        N118   1.346   1_565  A
C117        C243   1.472       .  S
N118        C119   1.345       .  A
C119        N120   1.358       .  A
C119        C133   1.474       .  S
O121        V129   1.942       .  S
O121        C131   1.273       .  A
O122        V129   1.941   1_565  S
O122        C132   1.272       .  A
O123        V129   1.937   1_556  S
O123        C133   1.270       .  A
O124        V129   1.940       .  S
O124        C134   1.270   1_545  A
O125        V130   1.860   1_565  S
O125        C134   1.259       .  A
O126        V130   1.864   1_556  S
O126        C133   1.259       .  A
O127        V130   1.855   1_565  S
O127        C132   1.256       .  A
O128        V130   1.856       .  S
O128        C131   1.256       .  A
V129        V130   2.084       .  T
C134        C139   1.475       .  S
C135        N136   1.378       .  A
C135        N140   1.375       .  A
C135        C372   1.487       .  S
N136        C137   1.361       .  A
C137        N138   1.342       .  A
C137        C197   1.479       .  S
N138        C139   1.341       .  A
C139        N140   1.359       .  A
C141        N142   1.375       .  A
C141        N146   1.370       .  A
C141        C404   1.471       .  S
N142        C143   1.359       .  A
C143        N144   1.345   1_554  A
C143        C165   1.476       .  S
N144        C145   1.344   1_556  A
C145        N146   1.355       .  A
C145        C227   1.467       .  S
C147        N148   1.375       .  A
C147        N152   1.375       .  A
C147        C279   1.478       .  S
N148        C149   1.361       .  A
C149        N150   1.345       .  A
C149        C163   1.478       .  S
N150        C151   1.343       .  A
C151        N152   1.359       .  A
C151        C241   1.478       .  S
O153        V161   1.858   1_456  S
O153        C163   1.258       .  A
O154        V161   1.862       .  S
O154        C164   1.257       .  A
O155        V161   1.859   1_556  S
O155        C165   1.258   1_556  A
O156        V161   1.860   1_455  S
O156        C166   1.257       .  A
O157        V162   1.938   1_455  S
O157        C166   1.272       .  A
O158        V162   1.942       .  S
O158        C165   1.272       .  A
O159        V162   1.940       .  S
O159        C164   1.272       .  A
O160        V162   1.945   1_556  S
O160        C163   1.272   1_655  A
V161        V162   2.081       .  T
C164        C169   1.474       .  S
C167        N168   1.370       .  A
C167        N172   1.374       .  A
C167        C311   1.469       .  S
N168        C169   1.355       .  A
C169        N170   1.347   1_655  A
N170        C171   1.349       .  A
C171        N172   1.358   1_455  A
C171        C195   1.479       .  S
C173        N174   1.374   1_655  A
C173        N178   1.373       .  A
C173        C295   1.472       .  S
N174        C175   1.358       .  A
C175        N176   1.346       .  A
C175        C255   1.478       .  S
N176        C177   1.348       .  A
C177        N178   1.357   1_455  A
C177        C196   1.477       .  S
C179        N180   1.373       .  A
C179        N184   1.374       .  A
C179        C359   1.480       .  S
N180        C181   1.358       .  A
C181        N182   1.345   1_565  A
C181        C230   1.474       .  S
N182        C183   1.345   1_545  A
C183        N184   1.359       .  A
C183        C198   1.476       .  S
O185        V193   1.950   1_545  S
O185        C195   1.275       .  A
O186        V193   1.949       .  S
O186        C196   1.274       .  A
O187        V193   1.945   1_545  S
O187        C197   1.271   1_545  A
O188        V193   1.940   1_655  S
O188        C198   1.271       .  A
O189        V194   1.861   1_645  S
O189        C198   1.258   1_545  A
O190        V194   1.858       .  S
O190        C197   1.259       .  A
O191        V194   1.852       .  S
O191        C196   1.255       .  A
O192        V194   1.853   1_545  S
O192        C195   1.255       .  A
V193        V194   2.084       .  T
C199        N200   1.371       .  A
C199        N204   1.372       .  A
C199        C388   1.466       .  S
N200        C201   1.355       .  A
C201        N202   1.342       .  A
C201        C228   1.468       .  S
N202        C203   1.344       .  A
C203        N204   1.356       .  A
C203        C258   1.469       .  S
C205        N206   1.374       .  A
C205        N210   1.374       .  A
C205        C260   1.477       .  S
N206        C207   1.359   1_655  A
C207        N208   1.344       .  A
C207        C242   1.476       .  S
N208        C209   1.345       .  A
C209        N210   1.359   1_455  A
C209        C256   1.476       .  S
C211        N212   1.376       .  A
C211        N216   1.372       .  A
C211        C324   1.476       .  S
N212        C213   1.360   1_565  A
C213        N214   1.345       .  A
C213        C229   1.480   1_545  S
N214        C215   1.345       .  A
C215        N216   1.356   1_545  A
C215        C244   1.473       .  S
O217        V225   1.857   1_545  S
O217        C227   1.257       .  A
O218        V225   1.856       .  S
O218        C228   1.257       .  A
O219        V225   1.861   1_546  S
O219        C229   1.258   1_545  A
O220        V225   1.860       .  S
O220        C230   1.258       .  A
O221        V226   1.941       .  S
O221        C230   1.272       .  A
O222        V226   1.945   1_556  S
O222        C229   1.273       .  A
O223        V226   1.935       .  S
O223        C228   1.270       .  A
O224        V226   1.934   1_545  S
O224        C227   1.270       .  A
V225        V226   2.083       .  T
O231        V239   1.864   1_545  S
O231        C241   1.259       .  A
O232        V239   1.863   1_655  S
O232        C242   1.259   1_655  A
O233        V239   1.852       .  S
O233        C243   1.255       .  A
O234        V239   1.852   1_645  S
O234        C244   1.256       .  A
O235        V240   1.943   1_655  S
O235        C244   1.273   1_565  A
O236        V240   1.944       .  S
O236        C243   1.273       .  A
O237        V240   1.940       .  S
O237        C242   1.271       .  A
O238        V240   1.941   1_545  S
O238        C241   1.271       .  A
V239        V240   2.084       .  T
O245        V253   1.943       .  S
O245        C255   1.272       .  A
O246        V253   1.942   1_556  S
O246        C256   1.271       .  A
O247        V253   1.942       .  S
O247        C257   1.272       .  A
O248        V253   1.940   1_655  S
O248        C258   1.271       .  A
O249        V254   1.849   1_655  S
O249        C258   1.256       .  A
O250        V254   1.850       .  S
O250        C257   1.255       .  A
O251        V254   1.860   1_556  S
O251        C256   1.258       .  A
O252        V254   1.862       .  S
O252        C255   1.258       .  A
V253        V254   2.084       .  T
C259        C260   1.404       .  A
C259        C264   1.410       .  A
C259        H266   1.083       .  S
C260        C261   1.416   1_655  A
C261        C262   1.405       .  A
C261        C268   1.518       .  S
C262        C263   1.401   1_455  A
C262        H267   1.083       .  S
C263        C264   1.417       .  A
C264        C265   1.519       .  S
C265        F269   1.384       .  S
C265        F270   1.383       .  S
C265        F271   1.382       .  S
C268        F272   1.382       .  S
C268        F273   1.384       .  S
C268        F274   1.384       .  S
C275        C276   1.403   1_655  A
C275        C280   1.408       .  A
C275        H282   1.083       .  S
C276        C277   1.418       .  A
C277        C278   1.410       .  A
C277        C284   1.518       .  S
C278        C279   1.402       .  A
C278        H283   1.083       .  S
C279        C280   1.414   1_455  A
C280        C281   1.517       .  S
C281        F285   1.384       .  S
C281        F286   1.383       .  S
C281        F287   1.383       .  S
C284        F288   1.385       .  S
C284        F289   1.382       .  S
C284        F290   1.382       .  S
C291        C292   1.402   1_455  A
C291        C296   1.406       .  A
C291        H298   1.083       .  S
C292        C293   1.416       .  A
C293        C294   1.407       .  A
C293        C300   1.518       .  S
C294        C295   1.402       .  A
C294        H299   1.083       .  S
C295        C296   1.415   1_655  A
C296        C297   1.518       .  S
C297        F301   1.384       .  S
C297        F302   1.383       .  S
C297        F303   1.382       .  S
C300        F304   1.382       .  S
C300        F305   1.383       .  S
C300        F306   1.385       .  S
C307        C308   1.400   1_455  A
C307        C312   1.403       .  A
C307        H314   1.083       .  S
C308        C309   1.414       .  A
C309        C310   1.406       .  A
C309        C316   1.518       .  S
C310        C311   1.402       .  A
C310        H315   1.083       .  S
C311        C312   1.415   1_655  A
C312        C313   1.518       .  S
C313        F317   1.385       .  S
C313        F318   1.383       .  S
C313        F319   1.383       .  S
C316        F320   1.383       .  S
C316        F321   1.382       .  S
C316        F322   1.384       .  S
C323        C324   1.401   1_545  A
C323        C328   1.406       .  A
C323        H330   1.083       .  S
C324        C325   1.416       .  A
C325        C326   1.409       .  A
C325        C332   1.518       .  S
C326        C327   1.404       .  A
C326        H331   1.083       .  S
C327        C328   1.417   1_565  A
C328        C329   1.519       .  S
C329        F333   1.381       .  S
C329        F334   1.383       .  S
C329        F335   1.384       .  S
C332        F336   1.383       .  S
C332        F337   1.382       .  S
C332        F338   1.385       .  S
C339        C340   1.403       .  A
C339        C344   1.407       .  A
C339        H346   1.083       .  S
C340        C341   1.416   1_545  A
C341        C342   1.404       .  A
C341        C348   1.520       .  S
C342        C343   1.400   1_565  A
C342        H347   1.083       .  S
C343        C344   1.414       .  A
C344        C345   1.518       .  S
C345        F349   1.384       .  S
C345        F350   1.383       .  S
C345        F351   1.384       .  S
C348        F352   1.382       .  S
C348        F353   1.384       .  S
C348        F354   1.382       .  S
C355        C356   1.404       .  A
C355        C360   1.407       .  A
C355        H362   1.083       .  S
C356        C357   1.423   1_565  A
C357        C358   1.407       .  A
C357        C364   1.521       .  S
C358        C359   1.402   1_545  A
C358        H363   1.084       .  S
C359        C360   1.416       .  A
C360        C361   1.518       .  S
C361        F365   1.385       .  S
C361        F366   1.381       .  S
C361        F367   1.384       .  S
C364        F368   1.383       .  S
C364        F369   1.385       .  S
C364        F370   1.382       .  S
C371        C372   1.406       .  A
C371        C376   1.410       .  A
C371        H378   1.083       .  S
C372        C373   1.421   1_565  A
C373        C374   1.406       .  A
C373        C380   1.519       .  S
C374        C375   1.400   1_545  A
C374        H379   1.083       .  S
C375        C376   1.416       .  A
C376        C377   1.520       .  S
C377        F381   1.385       .  S
C377        F382   1.380       .  S
C377        F383   1.383       .  S
C380        F384   1.382       .  S
C380        F385   1.382       .  S
C380        F386   1.385       .  S
C387        C388   1.402   1_556  A
C387        C392   1.404       .  A
C387        H394   1.083       .  S
C388        C389   1.414       .  A
C389        C390   1.402       .  A
C389        C396   1.518       .  S
C390        C391   1.400       .  A
C390        H395   1.083       .  S
C391        C392   1.415   1_554  A
C392        C393   1.519       .  S
C393        F397   1.385       .  S
C393        F398   1.383       .  S
C393        F399   1.382       .  S
C396        F400   1.382       .  S
C396        F401   1.383       .  S
C396        F402   1.385       .  S
C403        C404   1.401   1_556  A
C403        C408   1.404       .  A
C403        H410   1.083       .  S
C404        C405   1.416       .  A
C405        C406   1.406       .  A
C405        C412   1.518       .  S
C406        C407   1.402       .  A
C406        H411   1.083       .  S
C407        C408   1.415   1_554  A
C408        C409   1.519       .  S
C409        F413   1.384       .  S
C409        F414   1.381       .  S
C409        F415   1.383       .  S
C412        F416   1.383       .  S
C412        F417   1.382       .  S
C412        F418   1.385       .  S
C419        C420   1.402   1_556  A
C419        C424   1.402       .  A
C419        H426   1.083       .  S
C420        C421   1.415       .  A
C421        C422   1.402       .  A
C421        C428   1.519       .  S
C422        C423   1.400   1_554  A
C422        H427   1.084       .  S
C423        C424   1.413       .  A
C424        C425   1.517       .  S
C425        F429   1.385       .  S
C425        F430   1.383       .  S
C425        F431   1.382       .  S
C428        F432   1.383       .  S
C428        F433   1.385       .  S
C428        F434   1.382       .  S
C435        C436   1.402   1_556  A
C435        C440   1.406       .  A
C435        H442   1.083       .  S
C436        C437   1.414       .  A
C437        C438   1.403       .  A
C437        C444   1.519       .  S
C438        C439   1.400       .  A
C438        H443   1.083       .  S
C439        C440   1.414   1_554  A
C440        C441   1.517       .  S
C441        F445   1.384       .  S
C441        F446   1.383       .  S
C441        F447   1.383       .  S
C444        F448   1.383       .  S
C444        F449   1.382       .  S
C444        F450   1.384       .  S
