geometry optimzed in LAMMPS
_audit_creation_date              2020-11-30 
_audit_creation_method            'lammps2cif' 
_symmetry_space_group_name_H-M    'P1' 
_symmetry_Int_Tables_number       1 
_symmetry_cell_setting            triclinic 
loop_ 
_symmetry_equiv_pos_as_xyz 
  x,y,z 
_cell_length_a                    45.04513316 
_cell_length_b                    45.09275152007819 
_cell_length_c                    45.062986120979716 
_cell_angle_alpha                 89.47610326029753 
_cell_angle_beta                  90.26967311258608 
_cell_angle_gamma                 90.54182783231505 
loop_ 
_atom_site_label 
_atom_site_type_symbol 
_atom_site_fract_x 
_atom_site_fract_y 
_atom_site_fract_z 
_atom_site_charge 
O1          O  0.74265597  0.79343680  0.71175065    -0.88900
C2          C  0.66766177  0.74381805  0.72445529     0.87100
Mg3        Mg  0.78038968  0.77750081  0.68858872     1.58100
O4          O  0.71327302  0.74918936  0.78708645    -0.88600
O5          O  0.73307943  0.80929508  0.75656068    -0.75900
C6          C  0.80013897  0.63959297  0.74000393     0.92200
O7          O  0.71319435  0.74556842  0.66891369    -0.75800
O8          O  0.80463848  0.65545397  0.71694677    -0.83300
Mg9        Mg  0.70002266  0.78942432  0.69073872     1.58000
C10         C  0.73511376  0.67835195  0.83957796     0.92100
O11         O  0.68522261  0.83523181  0.70968850    -0.81500
H12         H  0.73479685  0.77391838  0.81702698    -0.06900
C13         C  0.72202506  0.67479141  0.73812988     0.87100
O14         O  0.80220462  0.76346938  0.73257489    -0.76000
O15         O  0.68411891  0.76548069  0.72917358    -0.88800
O16         O  0.71243003  0.69247990  0.82998700    -0.81600
C17         C  0.63475163  0.74581018  0.80364796     0.92200
C18         C  0.67192711  0.84515382  0.73253858     0.92100
Mg19       Mg  0.77077168  0.69465999  0.78054741     1.58000
O20         O  0.78610405  0.64965822  0.76222767    -0.81500
O21         O  0.75804241  0.73841674  0.80292006    -0.75800
O22         O  0.64434015  0.76827223  0.78893654    -0.81600
O23         O  0.71594565  0.81208726  0.64800198    -0.83300
O24         O  0.82752603  0.71611921  0.68672205    -0.81600
C25         C  0.73503297  0.75453138  0.80309529     0.86500
O26         O  0.78592345  0.71853735  0.74275784    -0.88800
O27         O  0.72817582  0.69057580  0.75973762    -0.88900
O28         O  0.73755025  0.67513006  0.71457236    -0.75900
Mg29       Mg  0.68944538  0.78687916  0.77118427     1.58000
O30         O  0.65051604  0.72295163  0.80830419    -0.83300
H31         H  0.76794593  0.82389982  0.73193477    -0.07000
O32         O  0.75842358  0.73520287  0.68419409    -0.88600
H33         H  0.73666202  0.71034948  0.65453358    -0.06900
H34         H  0.81631618  0.73909987  0.76786640    -0.07000
C35         C  0.73645977  0.72977485  0.66841513     0.86500
C36         C  0.74851089  0.80968521  0.73301495     0.87100
C37         C  0.80229392  0.73997393  0.74834697     0.87100
H38         H  0.70228188  0.66099095  0.73894509    -0.07000
O39         O  0.66803619  0.72062942  0.74083100    -0.76100
Mg40       Mg  0.78178489  0.69720375  0.70076602     1.58000
H41         H  0.65310668  0.74428211  0.70531509    -0.07000
C42         C  0.73948705  0.80866865  0.63282866     0.92100
O43         O  0.82272953  0.76134977  0.66688135    -0.83300
C44         C  0.83850666  0.73893526  0.67379914     0.92200
O45         O  0.66661418  0.82850637  0.75495758    -0.83300
Mg46       Mg  0.69148814  0.70696450  0.78446820     1.58200
O47         O  0.76215938  0.79516938  0.64330497    -0.81600
O48         O  0.75599380  0.67134444  0.82223084    -0.83300
C49         C  0.64110439  0.02363830  0.74917072     0.85900
C50         C  0.62404168  0.01997068  0.77815424    -0.54300
C51         C  0.60611653  0.99554609  0.77975182     0.08900
C52         C  0.60564139  0.97721337  0.75095165     0.19800
C53         C  0.65715748  0.99347563  0.74497795    -0.55000
C54         C  0.63838435  0.96910586  0.74628374     0.09000
C55         C  0.61750196  0.02298985  0.72465361    -0.54500
C56         C  0.59886835  0.99919933  0.72539821     0.09500
H57         H  0.62813701  0.03412871  0.79717139     0.14100
H58         H  0.59016598  0.95792403  0.75142364    -0.00200
H59         H  0.68069288  0.99133383  0.74075173     0.14400
H60         H  0.61719545  0.03882338  0.70631824     0.14200
O61         O  0.78650271  0.28363236  0.76237285    -0.88900
C62         C  0.79717836  0.26043143  0.67714706     0.87100
Mg63       Mg  0.78735381  0.25185532  0.79764438     1.58100
O64         O  0.72481433  0.27804352  0.69668943    -0.88600
O65         O  0.75656726  0.31760362  0.74461759    -0.75900
C66         C  0.70097582  0.14038248  0.75241371     0.92200
O67         O  0.82616414  0.23166849  0.73576434    -0.75800
O68         O  0.72353320  0.14435229  0.76915854    -0.83300
Mg69       Mg  0.82313840  0.28247786  0.73181714     1.58000
C70         C  0.65238164  0.22677691  0.67401695     0.92100
O71         O  0.82425893  0.33358318  0.72737005    -0.81500
H72         H  0.69609716  0.30618862  0.71462837    -0.06900
C73         C  0.74404185  0.18990489  0.69586137     0.87100
O74         O  0.73659793  0.24929424  0.79901173    -0.76000
O75         O  0.79129044  0.27835787  0.69692838    -0.88800
O76         O  0.67336353  0.24187153  0.66177684    -0.81600
C77         C  0.74687574  0.29723300  0.62123616     0.92200
C78         C  0.81336243  0.35474465  0.71189241     0.92100
Mg79       Mg  0.69259371  0.21248865  0.73150938     1.58000
O80         O  0.69066376  0.16148725  0.73650953    -0.81500
O81         O  0.68993969  0.26335141  0.72755156    -0.75800
O82         O  0.76011262  0.31002070  0.64278448    -0.81600
O83         O  0.85879948  0.28480353  0.76806093    -0.83300
O84         O  0.75794414  0.18350151  0.81946594    -0.81600
C85         C  0.70326841  0.28348404  0.71263810     0.86500
O86         O  0.72440027  0.21608247  0.76587857    -0.88800
O87         O  0.72733701  0.21118184  0.69963855    -0.88900
O88         O  0.75780259  0.17756368  0.71730656    -0.75900
Mg89       Mg  0.75812010  0.31215910  0.69401352     1.58000
O90         O  0.72820096  0.27620684  0.62573269    -0.83300
H91         H  0.76627947  0.31281790  0.78841575    -0.07000
O92         O  0.79026174  0.21700642  0.76543783    -0.88600
H93         H  0.81971461  0.18887200  0.74868316    -0.06900
H94         H  0.69436548  0.23490086  0.79204235    -0.07000
C95         C  0.81239462  0.21156208  0.75030204     0.86500
C96         C  0.77004365  0.30509522  0.76611760     0.87100
C97         C  0.71748730  0.23300906  0.78608538     0.87100
H98         H  0.74771953  0.18214128  0.67356160    -0.07000
O99         O  0.77716169  0.24514578  0.66410919    -0.76100
Mg100      Mg  0.75757791  0.18240840  0.76814064     1.58000
H101        H  0.82015645  0.25701309  0.67138084    -0.07000
C102        C  0.86026289  0.26844817  0.79120141     0.92100
O103        O  0.78733121  0.21968282  0.83631295    -0.83300
C104        C  0.77107731  0.19689189  0.84074341     0.92200
O105        O  0.79174611  0.35050783  0.69402589    -0.83300
Mg106      Mg  0.72592264  0.24355519  0.66451387     1.58200
O107        O  0.83742415  0.25511045  0.80129491    -0.81600
O108        O  0.65739544  0.21006179  0.69632398    -0.83300
C109        C  0.89153135  0.49748346  0.77909950     0.85900
C110        C  0.87519335  0.46871754  0.77131668    -0.54300
C111        C  0.85891866  0.46973167  0.74583295     0.08900
C112        C  0.86000601  0.50021610  0.73013852     0.19800
C113        C  0.91010748  0.50449530  0.75065333    -0.55000
C114        C  0.89331158  0.50597631  0.72500045     0.09000
C115        C  0.86822888  0.52192782  0.77863523    -0.54500
C116        C  0.85153459  0.52337880  0.75345172     0.09500
H117        H  0.87793390  0.44835250  0.78409013     0.14100
H118        H  0.84620767  0.50147575  0.70968979    -0.00200
H119        H  0.93390548  0.50788962  0.75025705     0.14400
H120        H  0.86717835  0.53885110  0.79560413     0.14200
C121        C  0.74293460  0.86592618  0.45978364     0.85900
C122        C  0.76871047  0.88758369  0.46577036    -0.54300
C123        C  0.76719979  0.90268002  0.49177857     0.08900
C124        C  0.74009812  0.89335890  0.51083069     0.19800
C125        C  0.74399525  0.84485584  0.48709665    -0.55000
C126        C  0.74229043  0.85924008  0.51383000     0.09000
C127        C  0.71484924  0.88391352  0.46403924    -0.54500
C128        C  0.71265825  0.89810326  0.49056306     0.09500
H129        H  0.78780577  0.88958589  0.45126707     0.14100
H130        H  0.73905333  0.90506188  0.53234575    -0.00200
H131        H  0.74660873  0.82103727  0.48573624     0.14400
H132        H  0.69715887  0.88393210  0.44755654     0.14200
O133        O  0.69397875  0.73841694  0.22200577    -0.88900
C134        C  0.74280266  0.74942443  0.29788862     0.87100
Mg135      Mg  0.71260640  0.71686750  0.18391915     1.58100
O136        O  0.73404289  0.81440080  0.25558738    -0.88600
O137        O  0.67581587  0.78154481  0.23482488    -0.75900
C138        C  0.84919370  0.77555688  0.17210145     0.92200
O139        O  0.74249370  0.69478773  0.25061591    -0.75800
O140        O  0.83448050  0.75208164  0.16631220    -0.83300
Mg141      Mg  0.69811737  0.71559362  0.26364339     1.58000
C142        C  0.80337828  0.87139096  0.23837571     0.92100
O143        O  0.65208635  0.73199503  0.27937447    -0.81500
H144        H  0.70747442  0.84249348  0.23372061    -0.06900
C145        C  0.81067447  0.77041096  0.24725274     0.87100
O146        O  0.72552300  0.76209155  0.16366933    -0.76000
O147        O  0.72117866  0.75377895  0.28139328    -0.88800
O148        O  0.78859531  0.86004796  0.25983423    -0.81600
C149        C  0.73690300  0.82636410  0.33570569     0.92200
C150        C  0.64247881  0.75259423  0.29589985     0.92100
Mg151      Mg  0.79057295  0.81315334  0.19884924     1.58000
O152        O  0.83778068  0.79748470  0.18550364    -0.81500
O153        O  0.74468874  0.83179256  0.21108016    -0.75800
O154        O  0.71605151  0.80946460  0.32618735    -0.81600
O155        O  0.67576364  0.67411505  0.24529540    -0.83300
O156        O  0.77788216  0.71704450  0.14066130    -0.81600
C157        C  0.72798315  0.83022804  0.23378887     0.86500
O158        O  0.76944960  0.77430329  0.18146407    -0.88800
O159        O  0.79413254  0.79130365  0.24086980    -0.88900
O160        O  0.81169458  0.74709949  0.23167594    -0.75900
Mg161      Mg  0.69776468  0.79477479  0.27943895     1.58000
O162        O  0.75803075  0.83467888  0.31890399    -0.83300
H163        H  0.66283742  0.75913302  0.19799156    -0.07000
O164        O  0.75408187  0.71423285  0.20744281    -0.88600
H165        H  0.77866480  0.68289494  0.22699641    -0.06900
H166        H  0.74849675  0.79891276  0.15092411    -0.07000
C167        C  0.75910718  0.69655863  0.22795445     0.86500
C168        C  0.67687253  0.75937440  0.21751779     0.87100
C169        C  0.74822020  0.77906288  0.16456376     0.87100
H170        H  0.82375246  0.77151382  0.26739664    -0.07000
O171        O  0.76461152  0.76757431  0.29913872    -0.76100
Mg172      Mg  0.79253232  0.73319557  0.18665406     1.58000
H173        H  0.74341750  0.72939947  0.31124401    -0.07000
C174        C  0.68179723  0.65880405  0.22250596     0.92100
O175        O  0.73229148  0.69705408  0.14173404    -0.83300
C176        C  0.75659151  0.70297209  0.12833719     0.92200
O177        O  0.65811935  0.77513062  0.30266156    -0.83300
Mg178      Mg  0.77582654  0.81320755  0.27786692     1.58200
O179        O  0.69689595  0.66948609  0.20077951    -0.81600
O180        O  0.81067058  0.85611986  0.21597703    -0.83300
C181        C  0.72103293  0.60784539  0.99954845     0.85900
C182        C  0.71762191  0.62475765  0.97024933    -0.54300
C183        C  0.74074309  0.64307271  0.96325357     0.08900
C184        C  0.76613769  0.64264053  0.98656056     0.19800
C185        C  0.75083922  0.59132091  0.99617211    -0.55000
C186        C  0.77450418  0.60957408  0.98921810     0.09000
C187        C  0.72774116  0.63125326  0.02282762    -0.54500
C188        C  0.75103292  0.64945258  0.01641496     0.09500
H189        H  0.69878287  0.62138610  0.95545280     0.14100
H190        H  0.78504783  0.65764813  0.98106395    -0.00200
H191        H  0.75363503  0.56773043  0.99952623     0.14400
H192        H  0.71553200  0.63269299  0.04352500     0.14200
C193        C  0.52670523  0.74733200  0.35382342     0.85900
C194        C  0.52153284  0.71798741  0.36999257    -0.54300
C195        C  0.49681450  0.71657805  0.38716417     0.08900
C196        C  0.47911210  0.74595424  0.38710307     0.19800
C197        C  0.49710758  0.75220041  0.33639027    -0.55000
C198        C  0.47211393  0.75133862  0.35398736     0.09000
C199        C  0.52596177  0.77128590  0.37736699    -0.54500
C200        C  0.50146519  0.77103696  0.39480903     0.09500
H201        H  0.53578127  0.69899502  0.36679880     0.14100
H202        H  0.45948593  0.74595896  0.40182579    -0.00200
H203        H  0.49545057  0.75637228  0.31275779     0.14400
H204        H  0.54226634  0.78921334  0.37798519     0.14200
C205        C  0.12924529  0.96728218  0.76175038     0.85900
C206        C  0.10704797  0.97312802  0.73680310    -0.54300
C207        C  0.09321108  0.99977404  0.73817257     0.08900
C208        C  0.10357211  0.01903490  0.76466245     0.19800
C209        C  0.15104309  0.99421863  0.75949178    -0.55000
C210        C  0.13737864  0.02131409  0.76085493     0.09000
C211        C  0.11213667  0.97227000  0.79036804    -0.54500
C212        C  0.09995771  0.99966235  0.79290282     0.09500
H213        H  0.10370608  0.95795893  0.71845251     0.14100
H214        H  0.09227458  0.04077885  0.76576820    -0.00200
H215        H  0.17483351  0.99260444  0.75690735     0.14400
H216        H  0.11269624  0.95648758  0.80874843     0.14200
C217        C  0.75881274  0.14640107  0.96008508     0.85900
C218        C  0.73447584  0.12237674  0.96195417    -0.54300
C219        C  0.73257956  0.10818217  0.98852963     0.08900
C220        C  0.75685366  0.11776260  0.01097567     0.19800
C221        C  0.75360330  0.16637737  0.98732011    -0.55000
C222        C  0.75270915  0.15145869  0.01411829     0.09000
C223        C  0.78709816  0.12922709  0.96757005    -0.54500
C224        C  0.78668377  0.11522392  0.99446520     0.09500
H225        H  0.71870208  0.11712109  0.94455716     0.14100
H226        H  0.75669360  0.10506293  0.03213931    -0.00200
H227        H  0.75137660  0.19026927  0.98547304     0.14400
H228        H  0.80673126  0.12948491  0.95367356     0.14200
C229        C  0.35332751  0.52439830  0.75335399     0.85900
C230        C  0.36838026  0.51884974  0.72372279    -0.54300
C231        C  0.38441837  0.49348659  0.72233703     0.08900
C232        C  0.38541673  0.47604063  0.75195836     0.19800
C233        C  0.33562534  0.49547906  0.76040914    -0.55000
C234        C  0.35244259  0.47012850  0.75924016     0.09000
C235        C  0.37846337  0.52314942  0.77647883    -0.54500
C236        C  0.39548835  0.49844479  0.77581484     0.09500
H237        H  0.36566130  0.53361260  0.70471234     0.14100
H238        H  0.39916123  0.45574434  0.75138836    -0.00200
H239        H  0.31260103  0.49484564  0.76712403     0.14400
H240        H  0.38075613  0.53881945  0.79450738     0.14200
C241        C  0.71905094  0.38821713  0.48620598     0.85900
C242        C  0.72333757  0.36188567  0.50746340    -0.54300
C243        C  0.75025688  0.34874705  0.50628026     0.08900
C244        C  0.77149955  0.36356669  0.48376474     0.19800
C245        C  0.74510468  0.40927174  0.49472963    -0.55000
C246        C  0.77261728  0.39634843  0.49313468     0.09000
C247        C  0.72707568  0.37660299  0.45559770    -0.54500
C248        C  0.75442504  0.36408512  0.45400779     0.09500
H249        H  0.70799089  0.35638161  0.52523046     0.14100
H250        H  0.79363548  0.35300483  0.48266184    -0.00200
H251        H  0.74221591  0.43219351  0.50111759     0.14400
H252        H  0.71269125  0.37913351  0.43632621     0.14200
C253        C  0.60778184  0.50951905  0.27943220     0.85900
C254        C  0.62180375  0.53962522  0.27171167    -0.54300
C255        C  0.63538346  0.54108239  0.24478801     0.08900
C256        C  0.63478513  0.51135733  0.22793348     0.19800
C257        C  0.58746767  0.50190582  0.25275207    -0.55000
C258        C  0.60153996  0.50291729  0.22577985     0.09000
C259        C  0.63307222  0.48702131  0.27605779    -0.54500
C260        C  0.64743694  0.48778208  0.24951717     0.09500
H261        H  0.62051354  0.55864995  0.28626159     0.14100
H262        H  0.64631334  0.51244478  0.20622391    -0.00200
H263        H  0.56446632  0.49543049  0.25493111     0.14400
H264        H  0.63682784  0.46888323  0.29153811     0.14200
C265        C  0.27532373  0.60817502  0.50930528     0.85900
C266        C  0.26645200  0.62796157  0.53473919    -0.54300
C267        C  0.24352567  0.64638358  0.52875384     0.08900
C268        C  0.22972707  0.64211483  0.49753895     0.19800
C269        C  0.24604368  0.59067181  0.50270418    -0.55000
C270        C  0.22216718  0.60875824  0.49669645     0.09000
C271        C  0.27932647  0.62845237  0.48231407    -0.54500
C272        C  0.25560660  0.64543151  0.47531370     0.09500
H273        H  0.27634650  0.62634589  0.55670610     0.14100
H274        H  0.21051507  0.65668174  0.49273374    -0.00200
H275        H  0.24366255  0.56676213  0.50383513     0.14400
H276        H  0.29894704  0.62781980  0.46835771     0.14200
C277        C  0.00260034  0.73298051  0.10315036     0.85900
C278        C  0.97311095  0.73425915  0.11997880    -0.54300
C279        C  0.97059807  0.75752117  0.13885926     0.08900
C280        C  0.99913060  0.77659071  0.14106429     0.19800
C281        C  0.00677571  0.76409244  0.08906313    -0.55000
C282        C  0.00478261  0.78688973  0.10894764     0.09000
C283        C  0.02575261  0.73198510  0.12827913    -0.54500
C284        C  0.02435871  0.75473155  0.14770223     0.09500
H285        H  0.95476255  0.71897527  0.11599914     0.14100
H286        H  0.99813881  0.79483993  0.15734438    -0.00200
H287        H  0.01101052  0.76774958  0.06562360     0.14400
H288        H  0.04274927  0.71544700  0.13107791     0.14200
O289        O  0.21378288  0.73063476  0.29113063    -0.88900
C290        C  0.30116778  0.72671479  0.27087269     0.87100
Mg291      Mg  0.17988078  0.72897622  0.25830411     1.58100
O292        O  0.27733149  0.79770579  0.28927985    -0.88600
O293        O  0.22875717  0.76209617  0.32517697    -0.75900
C294        C  0.22827526  0.82087611  0.15050383     0.92200
O295        O  0.24508177  0.69605758  0.23811264    -0.75800
O296        O  0.20980414  0.79968371  0.15490032    -0.83300
Mg297      Mg  0.24727696  0.69728143  0.28902889     1.58000
C298        C  0.30017957  0.87138716  0.24242433     0.92100
O299        O  0.24995818  0.69435386  0.33984214    -0.81500
H300        H  0.25805098  0.82510521  0.31785607    -0.06900
C301        C  0.28205728  0.78012656  0.20150429     0.87100
O302        O  0.17740365  0.78004911  0.25794228    -0.76000
O303        O  0.27997445  0.73158361  0.28748523    -0.88800
O304        O  0.31190361  0.84937589  0.25588439    -0.81600
C305        C  0.35287784  0.77951608  0.31174509     0.92200
C306        C  0.26312634  0.70603761  0.36201918     0.92100
Mg307      Mg  0.24433603  0.83031319  0.22392118     1.58000
O308        O  0.24308451  0.83203015  0.17204457    -0.81500
O309        O  0.24597445  0.83208838  0.27493078    -0.75800
O310        O  0.33102256  0.76524335  0.32315814    -0.81600
O311        O  0.21391371  0.65927829  0.28863163    -0.83300
O312        O  0.15847531  0.76333040  0.19221117    -0.81600
C313        C  0.26077115  0.81866129  0.29498694     0.86500
O314        O  0.21084033  0.79655483  0.22628880    -0.88800
O315        O  0.27727631  0.79636513  0.22297223    -0.88900
O316        O  0.26129744  0.76601996  0.18832282    -0.75900
Mg317      Mg  0.27956741  0.76383075  0.32237035     1.58000
O318        O  0.34909231  0.79766272  0.29023208    -0.83300
H319        H  0.18577865  0.74957317  0.31938487    -0.07000
O320        O  0.21312524  0.73007422  0.22452188    -0.88600
H321        H  0.23235538  0.70320719  0.19541728    -0.06900
H322        H  0.18327494  0.82358275  0.24747023    -0.07000
C323        C  0.22984781  0.70940762  0.21838161     0.86500
C324        C  0.20851684  0.74704162  0.31233891     0.87100
C325        C  0.19015143  0.80103500  0.24366130     0.87100
H326        H  0.30467620  0.77720078  0.19425016    -0.07000
O327        O  0.31428722  0.74737730  0.25653941    -0.76100
Mg328      Mg  0.21021690  0.76457750  0.19174419     1.58000
H329        H  0.30807055  0.70407473  0.26767109    -0.07000
C330        C  0.19097093  0.65553861  0.27245917     0.92100
O331        O  0.14261134  0.72963104  0.22506228    -0.83300
C332        C  0.13756304  0.74802771  0.20413035     0.92200
O333        O  0.27907100  0.72938087  0.35950294    -0.83300
Mg334      Mg  0.31129802  0.79818681  0.25621873     1.58200
O335        O  0.17823046  0.67712992  0.25913273    -0.81600
O336        O  0.27833794  0.86780459  0.22468099    -0.83300
C337        C  0.24957934  0.86008357  0.97293958     0.85900
C338        C  0.27977939  0.87514674  0.97580173    -0.54300
C339        C  0.28414063  0.89092973  0.00103722     0.08900
C340        C  0.25621332  0.89175449  0.02103614     0.19800
C341        C  0.24623053  0.84195679  0.00231890    -0.55000
C342        C  0.24929012  0.85876758  0.02763708     0.09000
C343        C  0.22687715  0.88475926  0.97610494    -0.54500
C344        C  0.22990080  0.90150483  0.00094658     0.09500
H345        H  0.29731362  0.87179840  0.95969942     0.14100
H346        H  0.25907874  0.90565097  0.04102790    -0.00200
H347        H  0.24139549  0.81842635  0.00336324     0.14400
H348        H  0.20846831  0.88747770  0.96065999     0.14200
C349        C  0.47332386  0.24568486  0.65387115     0.85900
C350        C  0.47056528  0.21789294  0.63466572    -0.54300
C351        C  0.49096528  0.21560564  0.61270321     0.08900
C352        C  0.51387175  0.24144065  0.61228443     0.19800
C353        C  0.50563990  0.24400117  0.66583476    -0.55000
C354        C  0.52687227  0.24127494  0.64407500     0.09000
C355        C  0.47440957  0.27177568  0.63206435    -0.54500
C356        C  0.49517195  0.27006477  0.61038381     0.09500
H357        H  0.45425713  0.20050276  0.63910548     0.14100
H358        H  0.53075379  0.23951521  0.59455297    -0.00200
H359        H  0.51210035  0.24422575  0.68882779     0.14400
H360        H  0.46015759  0.29094968  0.63433570     0.14200
O361        O  0.28720615  0.27505951  0.80685907    -0.88900
C362        C  0.19991078  0.28246546  0.78466244     0.87100
Mg363      Mg  0.32099032  0.27680268  0.77387620     1.58100
O364        O  0.22010744  0.20976474  0.80316170    -0.88600
O365        O  0.26971796  0.24308289  0.83976252    -0.75900
C366        C  0.26947671  0.19025720  0.66642501     0.92200
O367        O  0.25706267  0.31389173  0.75473114    -0.75800
O368        O  0.28656126  0.21234942  0.67091655    -0.83300
Mg369      Mg  0.25506235  0.30976382  0.80548104     1.58000
C370        C  0.19395343  0.13805477  0.75386824     0.92100
O371        O  0.25311378  0.30965250  0.85670138    -0.81500
H372        H  0.23756750  0.18090238  0.83217209    -0.06900
C373        C  0.21568695  0.23008700  0.71644051     0.87100
O374        O  0.32184782  0.22567084  0.77293337    -0.76000
O375        O  0.22065199  0.27664859  0.80182409    -0.88800
O376        O  0.18298982  0.15981573  0.76795762    -0.81600
C377        C  0.14502126  0.22993595  0.82405968     0.92200
C378        C  0.23749868  0.29807034  0.87742587     0.92100
Mg379      Mg  0.25249184  0.17800780  0.73869093     1.58000
O380        O  0.25497012  0.17771150  0.68741828    -0.81500
O381        O  0.25016956  0.17445497  0.78954757    -0.75800
O382        O  0.16676241  0.24408271  0.83583533    -0.81600
O383        O  0.29037954  0.34644908  0.80642943    -0.83300
O384        O  0.33799085  0.24586494  0.70651186    -0.81600
C385        C  0.23560070  0.18799817  0.80927078     0.86500
O386        O  0.28676897  0.21131864  0.74193298    -0.88800
O387        O  0.22030268  0.21263754  0.73727118    -0.88900
O388        O  0.23646748  0.24510208  0.70443371    -0.75900
Mg389      Mg  0.21863024  0.24341848  0.83594066     1.58000
O390        O  0.14913192  0.21196141  0.80291544    -0.83300
H391        H  0.31348996  0.25316255  0.83525996    -0.07000
O392        O  0.28636500  0.27802196  0.74122561    -0.88600
H393        H  0.26968444  0.30727333  0.71214570    -0.06900
H394        H  0.31394442  0.18267227  0.76222218    -0.07000
C395        C  0.27139550  0.30010715  0.73504510     0.86500
C396        C  0.29109277  0.25734782  0.82769511     0.87100
C397        C  0.30781389  0.20557594  0.75879078     0.87100
H398        H  0.19310629  0.23359332  0.70907030    -0.07000
O399        O  0.18592352  0.26235943  0.77053480    -0.76100
Mg400      Mg  0.28720927  0.24516510  0.70799917     1.58000
H401        H  0.19397215  0.30538955  0.78101771    -0.07000
C402        C  0.31203929  0.35027945  0.78862934     0.92100
O403        O  0.35835004  0.27610653  0.73975617    -0.83300
C404        C  0.36045659  0.25958151  0.71709614     0.92200
O405        O  0.21922059  0.27707645  0.87239381    -0.83300
Mg406      Mg  0.18646862  0.21122093  0.76969239     1.58200
O407        O  0.32316065  0.32851769  0.77458134    -0.81600
O408        O  0.21693274  0.14144823  0.73767801    -0.83300
C409        C  0.97030737  0.25839861  0.86067125     0.85900
C410        C  0.97409957  0.28701217  0.87850450    -0.54300
C411        C  0.99880345  0.28792272  0.89612749     0.08900
C412        C  0.01761483  0.25961972  0.89482001     0.19800
C413        C  0.99982681  0.25501979  0.84382793    -0.55000
C414        C  0.02459839  0.25585891  0.86163491     0.09000
C415        C  0.97135051  0.23361429  0.88442184    -0.54500
C416        C  0.99595667  0.23402356  0.90199723     0.09500
H417        H  0.95892064  0.30553021  0.87666315     0.14100
H418        H  0.03759312  0.25989812  0.90931203    -0.00200
H419        H  0.00095494  0.25182855  0.82000543     0.14400
H420        H  0.95553648  0.21565526  0.88684128     0.14200
O421        O  0.75694819  0.22030526  0.20971500    -0.88900
C422        C  0.83500265  0.26588705  0.21827892     0.87100
Mg423      Mg  0.71904372  0.23734210  0.18682156     1.58100
O424        O  0.79206533  0.26249567  0.28271962    -0.88600
O425        O  0.76838727  0.20382088  0.25425135    -0.75900
C426        C  0.70616954  0.37526686  0.23725620     0.92200
O427        O  0.78640909  0.26683324  0.16512285    -0.75800
O428        O  0.69916506  0.35949265  0.21493647    -0.83300
Mg429      Mg  0.79869379  0.22223164  0.18718064     1.58000
C430        C  0.77717572  0.33459349  0.33336487     0.92100
O431        O  0.81124738  0.17608639  0.20668739    -0.81500
H432        H  0.77121198  0.23865527  0.31405904    -0.06900
C433        C  0.78264020  0.33731906  0.23227241     0.87100
O434        O  0.69886080  0.25168599  0.23120673    -0.76000
O435        O  0.81799871  0.24500667  0.22442344    -0.88800
O436        O  0.79805617  0.31890696  0.32313975    -0.81600
C437        C  0.87044643  0.26295687  0.29906353     0.92200
C438        C  0.82462452  0.16524805  0.22930612     0.92100
Mg439      Mg  0.73616923  0.31902479  0.27731594     1.58000
O440        O  0.72142042  0.36448436  0.25859926    -0.81500
O441        O  0.74850621  0.27487354  0.30004391    -0.75800
O442        O  0.86078768  0.24027407  0.28485029    -0.81600
O443        O  0.77995590  0.20006341  0.14576722    -0.83300
O444        O  0.67293494  0.29910283  0.18624389    -0.81600
C445        C  0.77095347  0.25799609  0.29970568     0.86500
O446        O  0.71757824  0.29563536  0.24080467    -0.88800
O447        O  0.77741714  0.32115603  0.25404483    -0.88900
O448        O  0.76553401  0.33806511  0.20971137    -0.75900
Mg449      Mg  0.81373590  0.22394399  0.26721538     1.58000
O450        O  0.85522620  0.28639304  0.30064357    -0.83300
H451        H  0.73138019  0.19113075  0.23169452    -0.07000
O452        O  0.74209169  0.27873670  0.18144476    -0.88600
H453        H  0.76373738  0.30304166  0.15099204    -0.06900
H454        H  0.68725434  0.27606776  0.26689167    -0.07000
C455        C  0.76371588  0.28350371  0.16507724     0.86500
C456        C  0.75152079  0.20436114  0.23155418     0.87100
C457        C  0.70051865  0.27485031  0.24701517     0.87100
H458        H  0.80275453  0.35058834  0.23208649    -0.07000
O459        O  0.83599110  0.28942921  0.23359942    -0.76100
Mg460      Mg  0.72008033  0.31706489  0.19838992     1.58000
H461        H  0.84866378  0.26449030  0.19868812    -0.07000
C462        C  0.75642346  0.20511881  0.13086285     0.92100
O463        O  0.67765317  0.25507080  0.16461522    -0.83300
C464        C  0.66205247  0.27720083  0.17196799     0.92200
O465        O  0.83329462  0.18114992  0.25099309    -0.83300
Mg466      Mg  0.81492801  0.30376651  0.27748949     1.58200
O467        O  0.73490703  0.21988128  0.14134674    -0.81600
O468        O  0.75499869  0.34220421  0.31758983    -0.83300
C469        C  0.88298783  0.01469932  0.28940401     0.85900
C470        C  0.85933202  0.99030901  0.28466255    -0.54300
C471        C  0.84606012  0.99051092  0.25750409     0.08900
C472        C  0.85756405  0.01562007  0.23694569     0.19800
C473        C  0.90459156  0.00935905  0.26316568    -0.55000
C474        C  0.89129978  0.01038210  0.23548464     0.09000
C475        C  0.86744042  0.04365998  0.28172850    -0.54500
C476        C  0.85447578  0.04460778  0.25446568     0.09500
H477        H  0.85653062  0.97146631  0.29960401     0.14100
H478        H  0.84599538  0.01660224  0.21518735    -0.00200
H479        H  0.92755365  0.00322021  0.26610511     0.14400
H480        H  0.86768215  0.06259312  0.29650084     0.14200
C481        C  0.04111787  0.26812593  0.36279464     0.85900
C482        C  0.03768648  0.24233796  0.38478956    -0.54300
C483        C  0.01123678  0.24139708  0.39923325     0.08900
C484        C  0.99002936  0.26664205  0.39019102     0.19800
C485        C  0.01382344  0.26467516  0.34177187    -0.55000
C486        C  0.98706755  0.26383018  0.35626830     0.09000
C487        C  0.03443397  0.29605335  0.38039594    -0.54500
C488        C  0.00776751  0.29580434  0.39444311     0.09500
H489        H  0.05430363  0.22519430  0.38753638     0.14100
H490        H  0.96844348  0.26577535  0.40192899    -0.00200
H491        H  0.01483099  0.26378646  0.31783464     0.14400
H492        H  0.04902853  0.31539884  0.38024939     0.14200
O493        O  0.30143304  0.23093845  0.23509289    -0.88900
C494        C  0.30522821  0.24937678  0.32327729     0.87100
Mg495      Mg  0.30419344  0.26344936  0.20050560     1.58100
O496        O  0.23438887  0.23117475  0.29661361    -0.88600
O497        O  0.27062995  0.19570795  0.24933604    -0.75900
C498        C  0.21172407  0.36842874  0.24360696     0.92200
O499        O  0.33724141  0.28289205  0.26730468    -0.75800
O500        O  0.23521453  0.36645736  0.22811249    -0.83300
Mg501      Mg  0.33491319  0.23190729  0.26916846     1.58000
C502        C  0.16157085  0.27958591  0.31602209     0.92100
O503        O  0.33601670  0.18050714  0.27127658    -0.81500
H504        H  0.20717234  0.20239120  0.27645294    -0.06900
C505        C  0.25317928  0.31949422  0.30156351     0.87100
O506        O  0.25362787  0.26390141  0.19571965    -0.76000
O507        O  0.30055581  0.23297778  0.30184713    -0.88800
O508        O  0.18239324  0.26588997  0.32952374    -0.81600
C509        C  0.24711451  0.20657024  0.37207133     0.92200
C510        C  0.32427026  0.15841992  0.28494124     0.92100
Mg511      Mg  0.20433517  0.29583699  0.26132668     1.58000
O512        O  0.20155654  0.34620421  0.25804702    -0.81500
O513        O  0.20168986  0.24511298  0.26327712    -0.75800
O514        O  0.26256559  0.19550097  0.35128545    -0.81600
O515        O  0.37300549  0.23265571  0.23579897    -0.83300
O516        O  0.27428339  0.33118162  0.17939495    -0.81600
C517        C  0.21396406  0.22527085  0.27914791     0.86500
O518        O  0.23865476  0.29473127  0.22953767    -0.88800
O519        O  0.23720082  0.29769413  0.29608431    -0.88900
O520        O  0.26769996  0.33315945  0.28140394    -0.75900
Mg521      Mg  0.26753510  0.19815557  0.30012373     1.58000
O522        O  0.23175962  0.22983949  0.36766430    -0.83300
H523        H  0.28321520  0.20225757  0.20659709    -0.07000
O524        O  0.30452559  0.29750660  0.23397402    -0.88600
H525        H  0.33172786  0.32584167  0.25481401    -0.06900
H526        H  0.21066972  0.27591049  0.20059539    -0.07000
C527        C  0.32491708  0.30302156  0.25170188     0.86500
C528        C  0.28542045  0.20927494  0.22938405     0.87100
C529        C  0.23334975  0.27855510  0.20814545     0.87100
H530        H  0.25549696  0.32664577  0.32429813    -0.07000
O531        O  0.28447938  0.26363289  0.33556949    -0.76100
Mg532      Mg  0.27064887  0.33029142  0.23045349     1.58000
H533        H  0.32774954  0.25241011  0.33115925    -0.07000
C534        C  0.37652334  0.24788084  0.21207832     0.92100
O535        O  0.30476346  0.29660256  0.16234494    -0.83300
C536        C  0.28842336  0.31916913  0.15822246     0.92200
O537        O  0.30172271  0.16151047  0.30155281    -0.83300
Mg538      Mg  0.23370105  0.26441671  0.33035776     1.58200
O539        O  0.35505188  0.26146203  0.19961412    -0.81600
O540        O  0.16644005  0.29578382  0.29335939    -0.83300
C541        C  0.22381491  0.39809279  0.01491348     0.85900
C542        C  0.23026466  0.38112773  0.04366945    -0.54300
C543        C  0.25466349  0.36357895  0.04290809     0.08900
C544        C  0.27032778  0.36369832  0.01260650     0.19800
C545        C  0.25335708  0.41488975  0.00768271    -0.55000
C546        C  0.27779843  0.39661751  0.00688961     0.09000
C547        C  0.22240323  0.37458861  0.99068061    -0.54500
C548        C  0.24614062  0.35638192  0.98949229     0.09500
H549        H  0.21746588  0.38421802  0.06378163     0.14100
H550        H  0.28985682  0.34897876  0.01141848    -0.00200
H551        H  0.25501263  0.43845688  0.00300935     0.14400
H552        H  0.20469943  0.37358940  0.97423099     0.14200
C553        C  0.39576911  0.01078476  0.22142254     0.85900
C554        C  0.38126542  0.04060659  0.22736884    -0.54300
C555        C  0.36416840  0.04127962  0.25226164     0.08900
C556        C  0.36236407  0.01106631  0.26881153     0.19800
C557        C  0.41275422  0.00374141  0.25084307    -0.55000
C558        C  0.39498745  0.00414457  0.27565813     0.09000
C559        C  0.37048849  0.98811124  0.22107317    -0.54500
C560        C  0.35315754  0.98771499  0.24553335     0.09500
H561        H  0.38555182  0.06015368  0.21370860     0.14100
H562        H  0.34805956  0.01116601  0.28880920    -0.00200
H563        H  0.43613141  0.99864884  0.25233483     0.14400
H564        H  0.36826473  0.97147606  0.20384377     0.14200
O565        O  0.97626362  0.00087490  0.56760623    -0.88900
C566        C  0.05164119  0.00775759  0.51929376     0.87100
Mg567      Mg  0.93791118  0.97717972  0.55173391     1.58100
O568        O  0.01167457  0.07363736  0.52258696    -0.88600
O569        O  0.98924553  0.04549857  0.58268775    -0.75900
C570        C  0.92046749  0.02743452  0.41389502     0.92200
O571        O  0.00349495  0.95560645  0.52121073    -0.75800
O572        O  0.91357327  0.00605522  0.43119048    -0.83300
Mg573      Mg  0.01735973  0.97814428  0.56485524     1.58000
C574        C  0.99417160  0.12439065  0.44914262     0.92100
O575        O  0.03269709  0.99744234  0.60977091    -0.81500
H576        H  0.99222595  0.10502424  0.54657246    -0.06900
C577        C  0.99783220  0.02377065  0.44929071     0.87100
O578        O  0.91700816  0.02183252  0.53789494    -0.76000
O579        O  0.03560719  0.01444550  0.54040236    -0.88800
O580        O  0.01607833  0.11355529  0.46365199    -0.81600
C581        C  0.09245189  0.08156915  0.51823056     0.92200
C582        C  0.04794118  0.01890645  0.62041222     0.92100
Mg583      Mg  0.95254626  0.06858393  0.46821445     1.58000
O584        O  0.93635801  0.04931781  0.42272528    -0.81500
O585        O  0.96746809  0.09103822  0.51156163    -0.75800
O586        O  0.08077897  0.06915379  0.54106075    -0.81600
O587        O  0.99919515  0.93785822  0.58883747    -0.83300
O588        O  0.89066591  0.97562636  0.49144562    -0.81600
C589        C  0.99087168  0.09067795  0.52751198     0.86500
O590        O  0.93438082  0.03202084  0.49332281    -0.88800
O591        O  0.99362998  0.04549637  0.46525848    -0.88900
O592        O  0.98062558  0.00126596  0.44973392    -0.75900
Mg593      Mg  0.03432032  0.05693424  0.56087706     1.58000
O594        O  0.07660301  0.08853076  0.49572952    -0.83300
H595        H  0.95211864  0.02367046  0.59657604    -0.07000
O596        O  0.95958044  0.97334010  0.51003961    -0.88600
H597        H  0.97906742  0.94222108  0.48571891    -0.06900
H598        H  0.90500180  0.05793506  0.51352207    -0.07000
C599        C  0.98032857  0.95631727  0.50496921     0.86500
C600        C  0.97182646  0.02304790  0.58300291     0.87100
C601        C  0.91811909  0.03799428  0.51455259     0.87100
H602        H  0.01717815  0.02355841  0.43518994    -0.07000
O603        O  0.05251197  0.02312921  0.49550264    -0.76100
Mg604      Mg  0.93637495  0.98970828  0.47250881     1.58000
H605        H  0.06455104  0.98770242  0.52075320    -0.07000
C606        C  0.97903340  0.92057086  0.57910357     0.92100
O607        O  0.89503969  0.95478409  0.53602359    -0.83300
C608        C  0.87944358  0.96120614  0.51325518     0.92200
O609        O  0.05599230  0.04074276  0.60407442    -0.83300
Mg610      Mg  0.03277716  0.06772236  0.48058732     1.58200
O611        O  0.95680175  0.93076104  0.56470073    -0.81600
O612        O  0.97074654  0.10917746  0.44414561    -0.83300
O613        O  0.03585177  0.96539050  0.00886007    -0.88900
C614        C  0.02143678  0.01242266  0.08411849     0.87100
Mg615      Mg  0.05872231  0.98387691  0.97180852     1.58100
O616        O  0.95817890  0.00452603  0.03905263    -0.88600
O617        O  0.99144745  0.94724094  0.01831877    -0.75900
C618        C  0.00243869  0.11838003  0.95484942     0.92200
O619        O  0.07708070  0.01523678  0.03875033    -0.75800
O620        O  0.02481229  0.10286666  0.94829178    -0.83300
Mg621      Mg  0.05677217  0.96995168  0.05138528     1.58000
C622        C  0.90387225  0.07408785  0.02020369     0.92100
O623        O  0.03979322  0.92322408  0.06567793    -0.81500
H624        H  0.92864180  0.97880186  0.01790789    -0.06900
C625        C  0.00441635  0.08123820  0.03081425     0.87100
O626        O  0.01401792  0.99524828  0.94948195    -0.76000
O627        O  0.01748738  0.99131055  0.06713208    -0.88800
O628        O  0.91365636  0.05911170  0.04227392    -0.81600
C629        C  0.94286468  0.00443295  0.11794070     0.92200
C630        C  0.01750917  0.91190003  0.07917269     0.92100
Mg631      Mg  0.96249462  0.06061486  0.98244644     1.58000
O632        O  0.98034739  0.10711170  0.96869434    -0.81500
O633        O  0.94128493  0.01548341  0.99457467    -0.75800
O634        O  0.95886596  0.98354776  0.10802055    -0.81600
O635        O  0.10008968  0.94985282  0.03552049    -0.83300
O636        O  0.05661730  0.04505231  0.92465678    -0.81600
C637        C  0.94196988  0.99886650  0.01752664     0.86500
O638        O  0.00092568  0.03864069  0.96655537    -0.88800
O639        O  0.98342327  0.06431508  0.02487545    -0.88900
O640        O  0.02775607  0.08260076  0.01500174    -0.75900
Mg641      Mg  0.97638922  0.96756579  0.06233511     1.58000
O642        O  0.93655011  0.02722051  0.10240243    -0.83300
H643        H  0.01637124  0.93484740  0.98323722    -0.07000
O644        O  0.06012336  0.02526493  0.99409469    -0.88600
H645        H  0.08937113  0.05162178  0.01480621    -0.06900
H646        H  0.97707325  0.01705862  0.93589108    -0.07000
C647        C  0.07629693  0.03139928  0.01550008     0.86500
C648        C  0.01497925  0.94838687  0.00285020     0.87100
C649        C  0.99660956  0.01730251  0.94992015     0.87100
H650        H  0.00324293  0.09463613  0.05053865    -0.07000
O651        O  0.00393930  0.03439571  0.08457526    -0.76100
Mg652      Mg  0.04205044  0.06208880  0.97069283     1.58000
H653        H  0.04075670  0.01255592  0.09844190    -0.07000
C654        C  0.11578974  0.95631862  0.01283673     0.92100
O655        O  0.08115086  0.00281863  0.93098075    -0.83300
C656        C  0.07251791  0.02422911  0.91457709     0.92200
O657        O  0.99464828  0.92716644  0.08481648    -0.83300
Mg658      Mg  0.95964753  0.04591603  0.06169562     1.58200
O659        O  0.10472877  0.97028443  0.99067646    -0.81600
O660        O  0.92032152  0.08171224  0.99850791    -0.83300
O661        O  0.46508272  0.04416054  0.49657208    -0.88900
C662        C  0.47474716  0.99357271  0.57061205     0.87100
Mg663      Mg  0.44156271  0.02851356  0.45842473     1.58100
O664        O  0.53847385  0.99950987  0.52724424    -0.88600
O665        O  0.51005778  0.05985829  0.50772970    -0.75900
C666        C  0.49052660  0.89004550  0.43945738     0.92200
O667        O  0.42065295  0.99654708  0.52459056    -0.75800
O668        O  0.46797283  0.90598929  0.43366101    -0.83300
Mg669      Mg  0.44342370  0.04032568  0.53852742     1.58000
C670        C  0.59092572  0.93135894  0.50671949     0.92100
O671        O  0.46427710  0.08616162  0.55388202    -0.81500
H672        H  0.56858422  0.02515110  0.50665613    -0.06900
C673        C  0.48917268  0.92518345  0.51605241     0.87100
O674        O  0.48544063  0.01481799  0.43696136    -0.76000
O675        O  0.48059575  0.01570688  0.55508491    -0.88800
O676        O  0.58034843  0.94400224  0.52948532    -0.81600
C677        C  0.55193116  0.99354852  0.60691310     0.92200
C678        C  0.48722340  0.09538597  0.56823271     0.92100
Mg679      Mg  0.53234286  0.94604269  0.46868608     1.58000
O680        O  0.51304621  0.90068362  0.45327881    -0.81500
O681        O  0.55449993  0.99001619  0.48236877    -0.75800
O682        O  0.53808602  0.01622670  0.59696110    -0.81600
O683        O  0.40115131  0.06300347  0.52177741    -0.83300
O684        O  0.43793483  0.96775084  0.41061049    -0.81600
C685        C  0.55463194  0.00553461  0.50580433     0.86500
O686        O  0.49482423  0.96951498  0.45249566    -0.88800
O687        O  0.51082862  0.94145686  0.51061614    -0.88900
O688        O  0.46571208  0.92555372  0.50021106    -0.75900
Mg689      Mg  0.52320967  0.03654403  0.55152193     1.58000
O690        O  0.55765211  0.97180720  0.59023364    -0.83300
H691        H  0.48651287  0.07473007  0.47216330    -0.07000
O692        O  0.43663446  0.98600421  0.47984189    -0.88600
H693        H  0.40612049  0.96119189  0.50083843    -0.06900
H694        H  0.52031214  0.99070037  0.42276439    -0.07000
C695        C  0.42037930  0.98060258  0.50139346     0.86500
C696        C  0.48686969  0.06035182  0.49148954     0.87100
C697        C  0.50077973  0.99129181  0.43658908     0.87100
H698        H  0.48982984  0.91096279  0.53548648    -0.07000
O699        O  0.49050746  0.97025139  0.57022542    -0.76100
Mg700      Mg  0.45239798  0.94814902  0.45621638     1.58000
H701        H  0.45509994  0.99374282  0.58429364    -0.07000
C702        C  0.38548891  0.05791115  0.49864961     0.92100
O703        O  0.41955742  0.01324618  0.41590323    -0.83300
C704        C  0.42515519  0.99074854  0.40008395     0.92200
O705        O  0.50834175  0.07791529  0.57474539    -0.83300
Mg706      Mg  0.53462453  0.95710438  0.54837022     1.58200
O707        O  0.39591877  0.04438767  0.47625067    -0.81600
O708        O  0.57460207  0.92401950  0.48474746    -0.83300
C709        C  0.25118555  0.14901116  0.54478025     0.85900
C710        C  0.27517096  0.12625388  0.53864994    -0.54300
C711        C  0.27125940  0.11014051  0.51361738     0.08900
C712        C  0.24266821  0.11842808  0.49611304     0.19800
C713        C  0.25040465  0.16818336  0.51597780    -0.55000
C714        C  0.24575487  0.15219216  0.49046140     0.09000
C715        C  0.22180670  0.13178330  0.54381698    -0.54500
C716        C  0.21690876  0.11584905  0.51877990     0.09500
H717        H  0.29477462  0.12397622  0.55264279     0.14100
H718        H  0.23895192  0.10516346  0.47578338    -0.00200
H719        H  0.25365018  0.19184482  0.51483531     0.14400
H720        H  0.20537476  0.13317905  0.56133983     0.14200
O721        O  0.56453378  0.97540860  0.98153747    -0.88900
C722        C  0.51943281  0.05188372  0.98646755     0.87100
Mg723      Mg  0.54580863  0.93753485  0.95963386     1.58100
O724        O  0.52262700  0.01081068  0.05293005    -0.88600
O725        O  0.58199530  0.98789983  0.02519780    -0.75900
C726        C  0.40770039  0.92462092  0.01292058     0.92200
O727        O  0.51848287  0.00308897  0.93608210    -0.75800
O728        O  0.42341457  0.91653362  0.99095442    -0.83300
Mg729      Mg  0.56359018  0.01620759  0.95738657     1.58000
C730        C  0.44943934  0.99875331  0.10481953     0.92100
O731        O  0.61022168  0.03189508  0.97571235    -0.81500
H732        H  0.54658969  0.99076819  0.08460543    -0.06900
C733        C  0.44648393  0.99995669  0.00487666     0.87100
O734        O  0.53187578  0.91757904  0.00484341    -0.76000
O735        O  0.54053414  0.03584582  0.99344450    -0.88800
O736        O  0.46533278  0.01914651  0.09315290    -0.81600
C737        C  0.52263314  0.08982996  0.06405601     0.92200
C738        C  0.61921827  0.04836655  0.99702046     0.92100
Mg739      Mg  0.46484267  0.95490048  0.05107167     1.58000
O740        O  0.41834159  0.94074438  0.03358414    -0.81500
O741        O  0.50965266  0.96776283  0.07234246    -0.75800
O742        O  0.54509572  0.07997462  0.05022733    -0.81600
O743        O  0.58588161  0.99623155  0.91716258    -0.83300
O744        O  0.48295601  0.89080761  0.95855262    -0.81600
C745        C  0.52698461  0.99015746  0.07068459     0.86500
O746        O  0.48760256  0.93505253  0.01468189    -0.88800
O747        O  0.46345254  0.99526173  0.02601190    -0.88900
O748        O  0.44503260  0.98260302  0.98286474    -0.75900
Mg749      Mg  0.56128482  0.03304413  0.03616554     1.58000
O750        O  0.49919379  0.07442089  0.06741084    -0.83300
H751        H  0.59414777  0.95067611  0.00351993    -0.07000
O752        O  0.50454482  0.96004103  0.95500074    -0.88600
H753        H  0.48086314  0.98114215  0.92379004    -0.06900
H754        H  0.50790128  0.90566207  0.04116197    -0.07000
C755        C  0.50051784  0.98112205  0.93765117     0.86500
C756        C  0.58092917  0.97056461  0.00310819     0.87100
C757        C  0.50874532  0.91871373  0.02093391     0.87100
H758        H  0.43316763  0.01977986  0.00473770    -0.07000
O759        O  0.49583501  0.05269291  0.00177340    -0.76100
Mg760      Mg  0.46586650  0.93759253  0.97237284     1.58000
H761        H  0.52066289  0.06473601  0.96613195    -0.07000
C762        C  0.57661463  0.97441902  0.90181440     0.92100
O763        O  0.52771762  0.89615339  0.93835295    -0.83300
C764        C  0.50476027  0.88050974  0.94386657     0.92200
O765        O  0.60276476  0.05459175  0.01888521    -0.83300
Mg766      Mg  0.48148556  0.03341593  0.04684198     1.58200
O767        O  0.56017734  0.95399408  0.91283001    -0.81600
O768        O  0.44257597  0.97513034  0.09109002    -0.83300
C769        C  0.51456812  0.20952851  0.11368719     0.85900
C770        C  0.49037188  0.21136986  0.13756855    -0.54300
C771        C  0.48859380  0.23778298  0.15151817     0.08900
C772        C  0.51234218  0.26050141  0.14120354     0.19800
C773        C  0.50736900  0.23658199  0.09315202    -0.55000
C774        C  0.50637802  0.26337880  0.10773339     0.09000
C775        C  0.54318946  0.21814269  0.12966544    -0.54500
C776        C  0.54271203  0.24504657  0.14308377     0.09500
H777        H  0.47269879  0.19512589  0.14035909     0.14100
H778        H  0.51218206  0.28169091  0.15348322    -0.00200
H779        H  0.50199609  0.23476270  0.06979008     0.14400
H780        H  0.56332521  0.20515547  0.12816212     0.14200
O781        O  0.47665381  0.45260436  0.96320402    -0.88900
C782        C  0.46749455  0.54014991  0.97951402     0.87100
Mg783      Mg  0.47304915  0.41972218  0.99749716     1.58100
O784        O  0.54111156  0.51888758  0.96747325    -0.88600
O785        O  0.50967433  0.46826366  0.93075717    -0.75900
C786        C  0.55605501  0.47457796  0.10823808     0.92200
O787        O  0.43697090  0.48404172  0.01147179    -0.75800
O788        O  0.53525343  0.45548781  0.10473463    -0.83300
Mg789      Mg  0.44210606  0.48452599  0.96049604     1.58000
C790        C  0.60886747  0.54579248  0.02049642     0.92100
O791        O  0.44366734  0.48521032  0.90879739    -0.81500
H792        H  0.57118074  0.50009186  0.94131829    -0.06900
C793        C  0.51670267  0.52466973  0.05378940     0.87100
O794        O  0.52403903  0.41810729  0.00119842    -0.76000
O795        O  0.47464037  0.51906611  0.96377539    -0.88800
O796        O  0.58746689  0.55668118  0.00548591    -0.81600
C797        C  0.52399349  0.59312962  0.94172241     0.92200
C798        C  0.45618069  0.50008811  0.88794516     0.92100
Mg799      Mg  0.56937505  0.48779719  0.03531881     1.58000
O800        O  0.56777323  0.48789165  0.08610663    -0.81500
O801        O  0.57499335  0.48846536  0.98474726    -0.75800
O802        O  0.51132436  0.57101645  0.92912994    -0.81600
O803        O  0.40546853  0.44955034  0.95925433    -0.83300
O804        O  0.50229368  0.40176279  0.06753118    -0.81600
C805        C  0.56290780  0.50285921  0.96359494     0.86500
O806        O  0.53695377  0.45320821  0.03241934    -0.88800
O807        O  0.53401607  0.51941106  0.03329067    -0.88900
O808        O  0.50229184  0.50416781  0.06705637    -0.75900
Mg809      Mg  0.50985452  0.51933726  0.93197941     1.58000
O810        O  0.53833442  0.59018963  0.96595050    -0.83300
H811        H  0.49897008  0.42487883  0.93728909    -0.07000
O812        O  0.47085920  0.45412242  0.02982390    -0.88600
H813        H  0.44102777  0.47414725  0.05534141    -0.06900
H814        H  0.56644644  0.42561726  0.01481977    -0.07000
C815        C  0.44924878  0.47054853  0.03317536     0.86500
C816        C  0.49486615  0.44759948  0.94339992     0.87100
C817        C  0.54343596  0.43196830  0.01650340     0.87100
H818        H  0.51302098  0.54744944  0.05996050    -0.07000
O819        O  0.48631783  0.55402953  0.99537138    -0.76100
Mg820      Mg  0.50264364  0.45325998  0.06537678     1.58000
H821        H  0.44437256  0.54623540  0.98064387    -0.07000
C822        C  0.40017302  0.42944805  0.97858729     0.92100
O823        O  0.47260686  0.38302159  0.03232788    -0.83300
C824        C  0.48901451  0.37990589  0.05522329     0.92200
O825        O  0.47786793  0.51764394  0.89312406    -0.83300
Mg826      Mg  0.53700895  0.55306687  0.00011026     1.58200
O827        O  0.42110784  0.41853859  0.99450609    -0.81600
O828        O  0.60552190  0.52289915  0.03681898    -0.83300
O829        O  0.02388379  0.55003597  0.46518505    -0.88900
C830        C  0.03085095  0.46242450  0.48309190     0.87100
Mg831      Mg  0.02643742  0.58242352  0.49953689     1.58100
O832        O  0.95858429  0.48450443  0.46527332    -0.88600
O833        O  0.99264655  0.53550028  0.43054457    -0.75900
C834        C  0.93428866  0.53017193  0.60415271     0.92200
O835        O  0.06001298  0.51754124  0.51660636    -0.75800
O836        O  0.95542898  0.54890284  0.60063649    -0.83300
Mg837      Mg  0.05794973  0.51749387  0.46533727     1.58000
C838        C  0.88653729  0.45588948  0.51237260     0.92100
O839        O  0.06000835  0.51692906  0.41420679    -0.81500
H840        H  0.92992584  0.50289350  0.43669327    -0.06900
C841        C  0.97637340  0.47801841  0.55373424     0.87100
O842        O  0.97504838  0.58499249  0.49946021    -0.76000
O843        O  0.02495393  0.48360915  0.46651529    -0.88800
O844        O  0.90929624  0.44596604  0.49916863    -0.81600
C845        C  0.97756087  0.41077698  0.44096747     0.92200
C846        C  0.04886286  0.50338876  0.39201724     0.92100
Mg847      Mg  0.92518313  0.51464521  0.53057911     1.58000
O848        O  0.92372575  0.51578966  0.58212872    -0.81500
O849        O  0.92291251  0.51387748  0.47964059    -0.75800
O850        O  0.99073777  0.43320329  0.42931081    -0.81600
O851        O  0.09436259  0.55204578  0.46523750    -0.83300
O852        O  0.99186644  0.60174395  0.56496421    -0.81600
C853        C  0.93677104  0.50009544  0.45956777     0.86500
O854        O  0.95843023  0.54953422  0.52908922    -0.88800
O855        O  0.96057651  0.48307528  0.53173662    -0.88900
O856        O  0.98990371  0.49865459  0.56751790    -0.75900
Mg857      Mg  0.99199510  0.48445081  0.43193592     1.58000
O858        O  0.96159085  0.41317854  0.46404664    -0.83300
H859        H  0.00365947  0.57859166  0.43775284    -0.07000
O860        O  0.02525837  0.54764393  0.53177961    -0.88600
H861        H  0.05293080  0.52715852  0.55993346    -0.06900
H862        H  0.93134190  0.57800903  0.50839177    -0.07000
C863        C  0.04634348  0.53095304  0.53712306     0.86500
C864        C  0.00701360  0.55569517  0.44414482     0.87100
C865        C  0.95392735  0.57109176  0.51244006     0.87100
H866        H  0.97940739  0.45531518  0.56095551    -0.07000
O867        O  0.01094692  0.44873469  0.49781762    -0.76100
Mg868      Mg  0.99071143  0.54969673  0.56432040     1.58000
H869        H  0.05379261  0.45618224  0.48608726    -0.07000
C870        C  0.09921467  0.57223678  0.48416776     0.92100
O871        O  0.02710839  0.61847429  0.53439396    -0.83300
C872        C  0.00817244  0.62285216  0.55471600     0.92200
O873        O  0.02622028  0.48647268  0.39493415    -0.83300
Mg874      Mg  0.96013880  0.44978132  0.49827777     1.58200
O875        O  0.07845207  0.58289511  0.49997895    -0.81600
O876        O  0.88849972  0.47823554  0.52956766    -0.83300
O877        O  0.96947457  0.47327838  0.97274373    -0.88900
C878        C  0.05825737  0.49123666  0.96869051     0.87100
Mg879      Mg  0.93609840  0.50649259  0.96842939     1.58100
O880        O  0.03202488  0.47836102  0.04106263    -0.88600
O881        O  0.98306663  0.44044659  0.00633265    -0.75900
C882        C  0.98733704  0.61856892  0.04912808     0.92200
O883        O  0.00313836  0.52382237  0.93476317    -0.75800
O884        O  0.96860275  0.61379966  0.02848343    -0.83300
Mg885      Mg  0.00405699  0.47333632  0.93977198     1.58000
C886        C  0.05683311  0.53334615  0.10979981     0.92100
O887        O  0.00671487  0.42253649  0.93958111    -0.81500
H888        H  0.01175330  0.45234085  0.07107757    -0.06900
C889        C  0.03962214  0.56433222  0.01493448     0.87100
O890        O  0.93292142  0.51018876  0.01922716    -0.76000
O891        O  0.03605936  0.47603064  0.97462301    -0.88800
O892        O  0.06824509  0.51749397  0.08953844    -0.81600
C893        C  0.10691187  0.45343104  0.02738530     0.92200
C894        C  0.01983367  0.40093521  0.95236905     0.92100
Mg895      Mg  0.00051387  0.54647463  0.06670595     1.58000
O896        O  0.00054536  0.59733887  0.06246213    -0.81500
O897        O  0.00086560  0.49581646  0.07383624    -0.75800
O898        O  0.08505907  0.44160876  0.01351697    -0.81600
O899        O  0.97128616  0.47233151  0.90127332    -0.83300
O900        O  0.91682576  0.57663038  0.99477141    -0.81600
C901        C  0.01513903  0.47455040  0.06242280     0.86500
O902        O  0.96722622  0.54224748  0.03292147    -0.88800
O903        O  0.03390428  0.54425527  0.03301848    -0.88900
O904        O  0.01949445  0.57682407  0.99949090    -0.75900
Mg905      Mg  0.03392377  0.44307260  0.00938788     1.58000
O906        O  0.10385734  0.47702137  0.04238040    -0.83300
H907        H  0.94049911  0.44580851  0.99256888    -0.07000
O908        O  0.97042040  0.53956474  0.96669036    -0.88600
H909        H  0.99086977  0.56679775  0.93797017    -0.06900
H910        H  0.93883211  0.52364887  0.06171772    -0.07000
C911        C  0.98775870  0.54430439  0.94594732     0.86500
C912        C  0.96341233  0.45273990  0.99017809     0.87100
C913        C  0.94595385  0.52569189  0.03890554     0.87100
H914        H  0.06251558  0.57089568  0.01157745    -0.07000
O915        O  0.07150673  0.50660239  0.98824959    -0.76100
Mg916      Mg  0.96833309  0.57462054  0.99760457     1.58000
H917        H  0.06599601  0.49226184  0.94602834    -0.07000
C918        C  0.94807614  0.48761173  0.89658971     0.92100
O919        O  0.89924590  0.54094602  0.96570199    -0.83300
C920        C  0.89536598  0.56454172  0.98055995     0.92200
O921        O  0.03421285  0.40426194  0.97660081    -0.83300
Mg922      Mg  0.06717750  0.51128322  0.03867195     1.58200
O923        O  0.93534074  0.50174930  0.91735457    -0.81600
O924        O  0.03429008  0.54945963  0.10466677    -0.83300
C925        C  0.14704218  0.48074961  0.25225788     0.85900
C926        C  0.12976466  0.48603744  0.22358647    -0.54300
C927        C  0.11249116  0.51066208  0.22344494     0.08900
C928        C  0.11276986  0.52739542  0.25321443     0.19800
C929        C  0.16381192  0.51035148  0.25809690    -0.55000
C930        C  0.14586447  0.53496423  0.25852754     0.09000
C931        C  0.12356125  0.48003977  0.27683432    -0.54500
C932        C  0.10559820  0.50403413  0.27747925     0.09500
H933        H  0.13201134  0.47192223  0.20432104     0.14100
H934        H  0.09777538  0.54673663  0.25295773    -0.00200
H935        H  0.18749991  0.51170218  0.26233883     0.14400
H936        H  0.12325516  0.46367304  0.29467307     0.14200
O937        O  0.44488329  0.48370048  0.52663842    -0.88900
C938        C  0.49141673  0.56146264  0.51874625     0.87100
Mg939      Mg  0.46205389  0.44469878  0.54749721     1.58100
O940        O  0.48467208  0.52165822  0.45251599    -0.88600
O941        O  0.42671414  0.49738644  0.48337845    -0.75900
C942        C  0.59734419  0.43292360  0.49100218     0.92200
O943        O  0.49348337  0.51060778  0.57082101    -0.75800
O944        O  0.58209016  0.42586181  0.51367546    -0.83300
Mg945      Mg  0.44861513  0.52402774  0.55062177     1.58000
C946        C  0.55746377  0.50835984  0.39953332     0.92100
O947        O  0.40241135  0.53875848  0.53446312    -0.81500
H948        H  0.45919461  0.50171596  0.42205776    -0.06900
C949        C  0.56075459  0.51002326  0.49985101     0.87100
O950        O  0.47434160  0.42643892  0.50182133    -0.76000
O951        O  0.47056887  0.54428412  0.51329153    -0.88800
O952        O  0.54184212  0.52942797  0.40966448    -0.81600
C953        C  0.48459315  0.60088960  0.44129804     0.92200
C954        C  0.39165680  0.55485784  0.51377256     0.92100
Mg955      Mg  0.54052118  0.46497773  0.45455130     1.58000
O956        O  0.58700487  0.44952708  0.47043494    -0.81500
O957        O  0.49562889  0.47827044  0.43408241    -0.75800
O958        O  0.46363430  0.59049939  0.45745746    -0.81600
O959        O  0.42686210  0.50354811  0.59109756    -0.83300
O960        O  0.52441612  0.39893423  0.54645730    -0.81600
C961        C  0.47914024  0.50094211  0.43547137     0.86500
O962        O  0.51825171  0.44509633  0.49150394    -0.88800
O963        O  0.54414973  0.50577944  0.47829054    -0.88900
O964        O  0.56186739  0.49201125  0.52174660    -0.75900
Mg965      Mg  0.44734873  0.54292568  0.47175274     1.58000
O966        O  0.50741273  0.58572862  0.43509453    -0.83300
H967        H  0.41422149  0.45971104  0.50510734    -0.07000
O968        O  0.50396053  0.46709294  0.55224875    -0.88600
H969        H  0.52959683  0.48668504  0.58280546    -0.06900
H970        H  0.49762225  0.41611460  0.46495382    -0.07000
C971        C  0.50965924  0.48770687  0.56939864     0.86500
C972        C  0.42787735  0.47955186  0.50538297     0.87100
C973        C  0.49712173  0.42848631  0.48538011     0.87100
H974        H  0.57416303  0.53002262  0.50044368    -0.07000
O975        O  0.51377967  0.56377201  0.50174606    -0.76100
Mg976      Mg  0.54130254  0.44621935  0.53307806     1.58000
H977        H  0.49095100  0.57430894  0.53887572    -0.07000
C978        C  0.43239368  0.47994872  0.60571406     0.92100
O979        O  0.47936187  0.40161889  0.56647260    -0.83300
C980        C  0.50242218  0.38695078  0.55995023     0.92200
O981        O  0.40660473  0.56309945  0.49126649    -0.83300
Mg982      Mg  0.52630734  0.54434767  0.45643896     1.58200
O983        O  0.44746642  0.45886177  0.59484615    -0.81600
O984        O  0.56233402  0.48489991  0.41451418    -0.83300
C985        C  0.98751609  0.79444315  0.60829608     0.85900
C986        C  0.01295745  0.79000887  0.63077733    -0.54300
C987        C  0.01331796  0.76306371  0.64458659     0.08900
C988        C  0.98734527  0.74251318  0.63524857     0.19800
C989        C  0.98997855  0.76790634  0.58705022    -0.55000
C990        C  0.98995933  0.74079843  0.60119443     0.09000
C991        C  0.95981354  0.78792646  0.62686757    -0.54500
C992        C  0.95911999  0.76093348  0.64077825     0.09500
H993        H  0.02999356  0.80635292  0.63561850     0.14100
H994        H  0.98740827  0.72052061  0.64655254    -0.00200
H995        H  0.99211882  0.77035901  0.56316954     0.14400
H996        H  0.94162798  0.80340278  0.62849169     0.14200
O997        O  0.18671977  0.76692767  0.76075899    -0.88900
C998        C  0.23318459  0.76015354  0.68483231     0.87100
Mg999      Mg  0.20416643  0.79004204  0.79836580     1.58100
O1000       O  0.22835287  0.69406127  0.72568380    -0.88600
O1001       O  0.16968011  0.72271046  0.74914373    -0.75900
C1002       C  0.33987567  0.73626011  0.81534082     0.92200
O1003       O  0.23347342  0.81214260  0.73232228    -0.75800
O1004       O  0.32443290  0.75847612  0.82272476    -0.83300
Mg1005     Mg  0.18867661  0.79010137  0.71933187     1.58000
C1006       C  0.30120239  0.64291531  0.74258187     0.92100
O1007       O  0.14258862  0.77116604  0.70484691    -0.81500
H1008       H  0.20345645  0.66310967  0.74592218    -0.06900
C1009       C  0.30417461  0.74249893  0.73786379     0.87100
O1010       O  0.21697885  0.74562311  0.82013131    -0.76000
O1011       O  0.21191369  0.75367299  0.70104378    -0.88800
O1012       O  0.28643815  0.65235332  0.72009802    -0.81600
C1013       C  0.22911977  0.68623035  0.64563883     0.92200
C1014       C  0.13182212  0.74949828  0.69002828     0.92100
Mg1015     Mg  0.28323873  0.69838789  0.78375229     1.58000
O1016       O  0.32942057  0.71557610  0.79913867    -0.81500
O1017       O  0.23896682  0.67683931  0.77016963    -0.75800
O1018       O  0.20700081  0.69869866  0.65762856    -0.81600
O1019       O  0.16560814  0.83025100  0.73768009    -0.83300
O1020       O  0.26563309  0.79107172  0.84563965    -0.81600
C1021       C  0.22300643  0.67716957  0.74683619     0.86500
O1022       O  0.26063645  0.73520868  0.80194036    -0.88800
O1023       O  0.28710220  0.72124928  0.74229399    -0.88900
O1024       O  0.30521798  0.76468332  0.75510764    -0.75900
Mg1025     Mg  0.19012847  0.71131555  0.70393837     1.58000
O1026       O  0.25253712  0.67972481  0.66029158    -0.83300
H1027       H  0.15739445  0.74489614  0.78604261    -0.07000
O1028       O  0.24589310  0.79430838  0.77618869    -0.88600
H1029       H  0.27036249  0.82508339  0.75506183    -0.06900
H1030       H  0.24089040  0.70964931  0.83267382    -0.07000
C1031       C  0.25067087  0.81118833  0.75484405     0.86500
C1032       C  0.17054970  0.74516966  0.76603778     0.87100
C1033       C  0.23988469  0.72943529  0.81899094     0.87100
H1034       H  0.31809255  0.74253720  0.71838219    -0.07000
O1035       O  0.25641614  0.74437835  0.68390528    -0.76100
Mg1036     Mg  0.28348928  0.77675887  0.79959937     1.58000
H1037       H  0.23240017  0.78039593  0.67181847    -0.07000
C1038       C  0.17343580  0.84599797  0.75967891     0.92100
O1039       O  0.22159915  0.81256164  0.83949061    -0.83300
C1040       C  0.24406786  0.80625936  0.85542158     0.92200
O1041       O  0.14795052  0.72785197  0.68265854    -0.83300
Mg1042     Mg  0.27010071  0.69928932  0.70359701     1.58200
O1043       O  0.18971750  0.83593073  0.78058038    -0.81600
O1044       O  0.30512290  0.65853093  0.76560604    -0.83300
C1045       C  0.46176560  0.73546239  0.86051953     0.85900
C1046       C  0.46553908  0.76155960  0.88159318    -0.54300
C1047       C  0.49204856  0.76284722  0.89591496     0.08900
C1048       C  0.51323564  0.73737107  0.88772455     0.19800
C1049       C  0.48878841  0.73895170  0.83933805    -0.55000
C1050       C  0.51594191  0.73945703  0.85362057     0.09000
C1051       C  0.46873015  0.70771626  0.87891684    -0.54500
C1052       C  0.49557199  0.70828690  0.89290670     0.09500
H1053       H  0.44901525  0.77882061  0.88374656     0.14100
H1054       H  0.53479472  0.73795979  0.89972651    -0.00200
H1055       H  0.48675820  0.74246865  0.81571710     0.14400
H1056       H  0.45425213  0.68829624  0.87934782     0.14200
C1057       C  0.42419877  0.73260924  0.81711586    -0.26900
C1058       C  0.43008687  0.73410642  0.84782531    -0.14900
C1059       C  0.40553449  0.73416728  0.86752620     0.35700
C1060       C  0.37646421  0.73512709  0.85643231    -0.26300
C1061       C  0.37086745  0.73448286  0.82595105    -0.15500
C1062       C  0.39483171  0.73261158  0.80605608     0.36800
N1063       N  0.38923632  0.73121230  0.77466112    -0.89800
H1064       H  0.44214935  0.73124421  0.80146459     0.17900
H1065       H  0.35807170  0.73599070  0.87182498     0.17900
N1066       N  0.41004764  0.73342912  0.89904678    -0.88800
H1067       H  0.40916045  0.72972505  0.76298479     0.35300
H1068       H  0.37947344  0.75119902  0.76814578     0.40400
H1069       H  0.39912216  0.71468896  0.90760630     0.40000
H1070       H  0.40023900  0.75221875  0.90806962     0.34900
C1071       C  0.05708256  0.73115686  0.65288810    -0.26900
C1072       C  0.03966862  0.75464915  0.66267898    -0.14900
C1073       C  0.05151005  0.77410743  0.68431119     0.35700
C1074       C  0.08125834  0.77155939  0.69305238    -0.26300
C1075       C  0.09968585  0.74955066  0.68142596    -0.15500
C1076       C  0.08688024  0.72819239  0.66205046     0.36800
N1077       N  0.10425617  0.70426427  0.65070109    -0.89800
H1078       H  0.04797756  0.71607331  0.63659905     0.17900
H1079       H  0.09005326  0.78733893  0.70889521     0.17900
N1080       N  0.03404588  0.79690959  0.69764325    -0.88800
H1081       H  0.09203446  0.69192634  0.63527091     0.35300
H1082       H  0.10865662  0.68983093  0.66843745     0.40400
H1083       H  0.01174936  0.79533745  0.69134642     0.40000
H1084       H  0.04221918  0.81742476  0.69019072     0.34900
C1085       C  0.10148002  0.52834003  0.14177343    -0.26900
C1086       C  0.07071458  0.53257860  0.13987986    -0.14900
C1087       C  0.05412944  0.53351595  0.16660642     0.35700
C1088       C  0.06825720  0.52791946  0.19401207    -0.26300
C1089       C  0.09865344  0.52156345  0.19536886    -0.15500
C1090       C  0.11553108  0.52324185  0.16909470     0.36800
N1091       N  0.14708997  0.51954650  0.17006733    -0.89800
H1092       H  0.11476137  0.52843438  0.12177351     0.17900
H1093       H  0.05516822  0.52713272  0.21412742     0.17900
N1094       N  0.02280035  0.53858503  0.16657986    -0.88800
H1095       H  0.15702722  0.53869062  0.16120966     0.35300
H1096       H  0.15249613  0.50173135  0.15648569     0.40400
H1097       H  0.01246008  0.52259431  0.15332160     0.40000
H1098       H  0.01888056  0.55959487  0.15748233     0.34900
C1099       C  0.97530731  0.66334252  0.57190884    -0.26900
C1100       C  0.00415261  0.65356818  0.56583917    -0.14900
C1101       C  0.02821415  0.67379928  0.56881362     0.35700
C1102       C  0.02293896  0.70276465  0.57904365    -0.26300
C1103       C  0.99416730  0.71204244  0.58593345    -0.15500
C1104       C  0.97005293  0.69255741  0.58117834     0.36800
N1105       N  0.94026609  0.70268098  0.58538717    -0.89800
H1106       H  0.95667622  0.64832630  0.56865234     0.17900
H1107       H  0.04141389  0.71795857  0.58235240     0.17900
N1108       N  0.05793050  0.66472705  0.56209635    -0.88800
H1109       H  0.92493705  0.68572170  0.58095328     0.35300
H1110       H  0.93635675  0.71957034  0.56984663     0.40400
H1111       H  0.06375064  0.64814236  0.57734923     0.40000
H1112       H  0.07294581  0.68226079  0.56523256     0.34900
C1113       C  0.04675531  0.49747487  0.33679045    -0.26900
C1114       C  0.06257381  0.50721132  0.36204248    -0.14900
C1115       C  0.09144489  0.51946823  0.35812123     0.35700
C1116       C  0.10414638  0.51994856  0.32969205    -0.26300
C1117       C  0.08858216  0.50946906  0.30487070    -0.15500
C1118       C  0.05955198  0.49833684  0.30832352     0.36800
N1119       N  0.04351686  0.48721731  0.28304460    -0.89800
H1120       H  0.02453513  0.48843941  0.33930608     0.17900
H1121       H  0.12689876  0.52750429  0.32697970     0.17900
N1122       N  0.10839482  0.53024819  0.38298095    -0.88800
H1123       H  0.02227745  0.48004377  0.28924575     0.35300
H1124       H  0.05462257  0.46851582  0.27545450     0.40400
H1125       H  0.09843448  0.54980565  0.39000646     0.40000
H1126       H  0.12989854  0.53625003  0.37648362     0.34900
C1127       C  0.51984656  0.64815340  0.94734689    -0.26900
C1128       C  0.52098312  0.62335094  0.92856397    -0.14900
C1129       C  0.51746190  0.62774710  0.89774845     0.35700
C1130       C  0.51107547  0.65612531  0.88653778    -0.26300
C1131       C  0.50801675  0.68046268  0.90548465    -0.15500
C1132       C  0.51317935  0.67650819  0.93613847     0.36800
N1133       N  0.51020871  0.70048013  0.95649208    -0.89800
H1134       H  0.52263531  0.64526526  0.97109298     0.17900
H1135       H  0.50744710  0.65899393  0.86289120     0.17900
N1136       N  0.52026465  0.60345760  0.87772411    -0.88800
H1137       H  0.48864339  0.70865492  0.95465471     0.35300
H1138       H  0.52507019  0.71734553  0.95032433     0.40400
H1139       H  0.53718630  0.60868317  0.86270148     0.40000
H1140       H  0.50040869  0.60142359  0.86577588     0.34900
C1141       C  0.47897926  0.34242019  0.09440335    -0.26900
C1142       C  0.49296757  0.34987407  0.06777065    -0.14900
C1143       C  0.51066151  0.32869072  0.05348879     0.35700
C1144       C  0.51387013  0.30021057  0.06627244    -0.26300
C1145       C  0.50008706  0.29268973  0.09327139    -0.15500
C1146       C  0.48221364  0.31417448  0.10720290     0.36800
N1147       N  0.46670700  0.30745443  0.13411873    -0.89800
H1148       H  0.46525416  0.35861947  0.10531073     0.17900
H1149       H  0.52789297  0.28415485  0.05557659     0.17900
N1150       N  0.52625135  0.33660406  0.02675903    -0.88800
H1151       H  0.44403687  0.31067693  0.13034827     0.35300
H1152       H  0.47365016  0.32256257  0.15024825     0.40400
H1153       H  0.51042773  0.34049621  0.01017480     0.40000
H1154       H  0.53911030  0.31889085  0.01958379     0.34900
C1155       C  0.48670714  0.82793246  0.94819724    -0.26900
C1156       C  0.50368454  0.84943036  0.93296569    -0.14900
C1157       C  0.51941436  0.84087456  0.90740171     0.35700
C1158       C  0.51724221  0.81161467  0.89725777    -0.26300
C1159       C  0.50000885  0.79025012  0.91219646    -0.15500
C1160       C  0.48471617  0.79852315  0.93823144     0.36800
N1161       N  0.46610579  0.77805051  0.95445792    -0.89800
H1162       H  0.47462674  0.83404193  0.96792863     0.17900
H1163       H  0.52723533  0.80630245  0.87622238     0.17900
N1164       N  0.53631171  0.86217659  0.89059693    -0.88800
H1165       H  0.47504726  0.77590313  0.97581239     0.35300
H1166       H  0.46645220  0.75690987  0.94527109     0.40400
H1167       H  0.52764219  0.86298560  0.86903982     0.40000
H1168       H  0.55816943  0.85469429  0.88938390     0.34900
C1169       C  0.53762790  0.14373705  0.06311042    -0.26900
C1170       C  0.52302129  0.11986337  0.07709570    -0.14900
C1171       C  0.50758337  0.12497684  0.10351858     0.35700
C1172       C  0.50548573  0.15364250  0.11450143    -0.26300
C1173       C  0.51739429  0.17862310  0.09934266    -0.15500
C1174       C  0.53532085  0.17283827  0.07397030     0.36800
N1175       N  0.55228481  0.19546783  0.05912248    -0.89800
H1176       H  0.55050264  0.13989036  0.04328069     0.17900
H1177       H  0.49538004  0.15535688  0.13601960     0.17900
N1178       N  0.49457173  0.10081925  0.11999632    -0.88800
H1179       H  0.56612198  0.20602439  0.07442104     0.35300
H1180       H  0.53811438  0.21078435  0.04920636     0.40400
H1181       H  0.47185436  0.10482049  0.12212854     0.40000
H1182       H  0.50399820  0.10050582  0.14124446     0.34900
C1183       C  0.33435797  0.05594987  0.51948110    -0.26900
C1184       C  0.35405513  0.06759637  0.49821501    -0.14900
C1185       C  0.34375610  0.08949591  0.47816807     0.35700
C1186       C  0.31517685  0.10121543  0.48153927    -0.26300
C1187       C  0.29600902  0.09081850  0.50393265    -0.15500
C1188       C  0.30549009  0.06702334  0.52227361     0.36800
N1189       N  0.28648135  0.05430686  0.54452101    -0.89800
H1190       H  0.34173922  0.03864630  0.53457275     0.17900
H1191       H  0.30905089  0.12021832  0.46819028     0.17900
N1192       N  0.36251136  0.10152651  0.45539628    -0.88800
H1193       H  0.26684591  0.04726744  0.53418898     0.35300
H1194       H  0.28120187  0.07048817  0.56000726     0.40400
H1195       H  0.36866039  0.08426223  0.44144515     0.40000
H1196       H  0.38167685  0.11022054  0.46533975     0.34900
C1197       C  0.01201351  0.84407402  0.59431235    -0.26900
C1198       C  0.98677304  0.82547784  0.59350678    -0.14900
C1199       C  0.96011896  0.83776904  0.58208682     0.35700
C1200       C  0.95794638  0.86877438  0.57798484    -0.26300
C1201       C  0.98226816  0.88782318  0.58345963    -0.15500
C1202       C  0.01007735  0.87470076  0.59017454     0.36800
N1203       N  0.03710587  0.89154488  0.59265320    -0.89800
H1204       H  0.03378114  0.83512821  0.59859663     0.17900
H1205       H  0.93702213  0.87806085  0.57070632     0.17900
N1206       N  0.93521530  0.81884630  0.57516395    -0.88800
H1207       H  0.03567603  0.90580851  0.61071912     0.35300
H1208       H  0.04043152  0.90366483  0.57304091     0.40400
H1209       H  0.94162290  0.80496143  0.55793334     0.40000
H1210       H  0.91737683  0.83129933  0.56716468     0.34900
C1211       C  0.13706640  0.10504506  0.49374429    -0.26900
C1212       C  0.12532117  0.08769278  0.51726292    -0.14900
C1213       C  0.14562461  0.07592659  0.53850003     0.35700
C1214       C  0.17591713  0.08312539  0.53669136    -0.26300
C1215       C  0.18712696  0.10184590  0.51426036    -0.15500
C1216       C  0.16755434  0.11225416  0.49219871     0.36800
N1217       N  0.17822208  0.13152068  0.46909891    -0.89800
H1218       H  0.12241948  0.11394322  0.47680724     0.17900
H1219       H  0.19075995  0.07515366  0.55395217     0.17900
N1220       N  0.13646838  0.05684154  0.56240994    -0.88800
H1221       H  0.16670143  0.15149274  0.47025193     0.35300
H1222       H  0.17321149  0.12172258  0.44872308     0.40400
H1223       H  0.12571519  0.03821480  0.55364001     0.40000
H1224       H  0.12202953  0.06833958  0.57616138     0.34900
C1225       C  0.44191864  0.00272878  0.18881713    -0.26900
C1226       C  0.41181364  0.01042710  0.19150277    -0.14900
C1227       C  0.39526642  0.01579097  0.16509417     0.35700
C1228       C  0.40827941  0.01193465  0.13732464    -0.26300
C1229       C  0.43776591  0.00322726  0.13484506    -0.15500
C1230       C  0.45510397  0.99916258  0.16083871     0.36800
N1231       N  0.48571967  0.99045985  0.15983118    -0.89800
H1232       H  0.45544197  0.99868740  0.20822298     0.17900
H1233       H  0.39506179  0.01552902  0.11745937     0.17900
N1234       N  0.36472521  0.02436654  0.16637326    -0.88800
H1235       H  0.49842511  0.00768649  0.16889666     0.35300
H1236       H  0.49304785  0.98776657  0.13809959     0.40400
H1237       H  0.35197522  0.00847576  0.15518621     0.40000
H1238       H  0.36250558  0.04462071  0.15514030     0.34900
C1239       C  0.39012888  0.97782070  0.32429460    -0.26900
C1240       C  0.40520843  0.99903326  0.30677935    -0.14900
C1241       C  0.42669263  0.01746206  0.32048176     0.35700
C1242       C  0.43273248  0.01400680  0.35085540    -0.26300
C1243       C  0.41805537  0.99232586  0.36809702    -0.15500
C1244       C  0.39660646  0.97376344  0.35452359     0.36800
N1245       N  0.38036199  0.95124703  0.37063092    -0.89800
H1246       H  0.37241050  0.96471950  0.31477935     0.17900
H1247       H  0.44894955  0.02857908  0.36119230     0.17900
N1248       N  0.44147624  0.04093552  0.30462597    -0.88800
H1249       H  0.35793200  0.95699893  0.37010559     0.35300
H1250       H  0.38651738  0.95036121  0.39295147     0.40400
H1251       H  0.42544720  0.05480642  0.29522044     0.40000
H1252       H  0.45403382  0.03177581  0.28765956     0.34900
C1253       C  0.16779448  0.39740881  0.01429235    -0.26900
C1254       C  0.19411067  0.41443748  0.01758409    -0.14900
C1255       C  0.19120939  0.44379682  0.02788371     0.35700
C1256       C  0.16270137  0.45610561  0.03132527    -0.26300
C1257       C  0.13670084  0.43946643  0.02547064    -0.15500
C1258       C  0.13960630  0.40957150  0.01737226     0.36800
N1259       N  0.11399111  0.39101645  0.01285048    -0.89800
H1260       H  0.16881816  0.37394280  0.00959051     0.17900
H1261       H  0.16098702  0.47887353  0.03854653     0.17900
N1262       N  0.21681830  0.46089686  0.03604575    -0.88800
H1263       H  0.11520961  0.37302625  0.02759705     0.35300
H1264       H  0.11474428  0.38280637  0.99123943     0.40400
H1265       H  0.21482119  0.46660948  0.05837821     0.40000
H1266       H  0.21685568  0.48045885  0.02341263     0.34900
C1267       C  0.36218337  0.40320454  0.00985588    -0.26900
C1268       C  0.36866164  0.42002023  0.98423017    -0.14900
C1269       C  0.34458326  0.42974678  0.96630525     0.35700
C1270       C  0.31509153  0.42309035  0.97463125    -0.26300
C1271       C  0.30888314  0.40638327  0.00029551    -0.15500
C1272       C  0.33280921  0.39643301  0.01797410     0.36800
N1273       N  0.32739879  0.37997980  0.04476229    -0.89800
H1274       H  0.37998836  0.39573482  0.02425391     0.17900
H1275       H  0.29699380  0.43026036  0.96043995     0.17900
N1276       N  0.34981088  0.44610122  0.93941293    -0.88800
H1277       H  0.33816734  0.35961423  0.04323101     0.35300
H1278       H  0.33685325  0.39165296  0.06243574     0.40400
H1279       H  0.33894119  0.46641258  0.94091956     0.40000
H1280       H  0.34026320  0.43428528  0.92187601     0.34900
C1281       C  0.20820864  0.42346822  0.23419985    -0.26900
C1282       C  0.19528996  0.39697869  0.24498783    -0.14900
C1283       C  0.16628584  0.39803149  0.25665793     0.35700
C1284       C  0.15176195  0.42512679  0.25882246    -0.26300
C1285       C  0.16531084  0.45217811  0.25030032    -0.15500
C1286       C  0.19324060  0.45083434  0.23590011     0.36800
N1287       N  0.20609450  0.47691517  0.22241605    -0.89800
H1288       H  0.22995152  0.42283106  0.22407493     0.17900
H1289       H  0.12908307  0.42443070  0.26655478     0.17900
N1290       N  0.15086084  0.37153122  0.26575704    -0.88800
H1291       H  0.19220609  0.48334452  0.20489712     0.35300
H1292       H  0.22666343  0.47216163  0.21302654     0.40400
H1293       H  0.13130026  0.36974403  0.25328373     0.40000
H1294       H  0.14507209  0.37363703  0.28807862     0.34900
C1295       C  0.25888343  0.15157550  0.43654627    -0.26900
C1296       C  0.24482260  0.16591435  0.46004924    -0.14900
C1297       C  0.23030436  0.19292756  0.45409992     0.35700
C1298       C  0.23139171  0.20562719  0.42548071    -0.26300
C1299       C  0.24672898  0.19199505  0.40214847    -0.15500
C1300       C  0.26068689  0.16444177  0.40800372     0.36800
N1301       N  0.27667801  0.14939887  0.38515041    -0.89800
H1302       H  0.26916829  0.13037590  0.44048187     0.17900
H1303       H  0.22001868  0.22637867  0.42161411     0.17900
N1304       N  0.21344511  0.20707656  0.47672129    -0.88800
H1305       H  0.28380054  0.12861568  0.39262401     0.35300
H1306       H  0.29596680  0.16176535  0.38088581     0.40400
H1307       H  0.19151316  0.20884040  0.46925832     0.40000
H1308       H  0.22197893  0.22851890  0.47951146     0.34900
C1309       C  0.40642800  0.24808341  0.16620417    -0.26900
C1310       C  0.40585937  0.24875386  0.19726674    -0.14900
C1311       C  0.43298230  0.24926839  0.21318694     0.35700
C1312       C  0.46005989  0.24768574  0.19761882    -0.26300
C1313       C  0.46040165  0.24524990  0.16662281    -0.15500
C1314       C  0.43304985  0.24569719  0.15079904     0.36800
N1315       N  0.43130612  0.24303272  0.11912402    -0.89800
H1316       H  0.38579676  0.24782926  0.15371275     0.17900
H1317       H  0.48087848  0.24712280  0.20974732     0.17900
N1318       N  0.43292230  0.25124571  0.24498925    -0.88800
H1319       H  0.43886189  0.22226807  0.11274846     0.35300
H1320       H  0.44447525  0.25941846  0.10919632     0.40400
H1321       H  0.42386803  0.27174078  0.25045576     0.40000
H1322       H  0.45464132  0.25126180  0.25328103     0.34900
C1323       C  0.31642125  0.10348517  0.28251482    -0.26900
C1324       C  0.33597216  0.12803614  0.28008545    -0.14900
C1325       C  0.36562457  0.12292140  0.27126515     0.35700
C1326       C  0.37442622  0.09426479  0.26402407    -0.26300
C1327       C  0.35434594  0.07019481  0.26443287    -0.15500
C1328       C  0.32530280  0.07477071  0.27453370     0.36800
N1329       N  0.30436838  0.05069777  0.27535937    -0.89800
H1330       H  0.29364564  0.10674443  0.28929546     0.17900
H1331       H  0.39717164  0.09094394  0.25714969     0.17900
N1332       N  0.38747012  0.14616989  0.26944194    -0.88800
H1333       H  0.28639921  0.05624246  0.26169704     0.35300
H1334       H  0.29657976  0.04853832  0.29709801     0.40400
H1335       H  0.38824771  0.15728311  0.28969674     0.40000
H1336       H  0.38162230  0.16095399  0.25247473     0.34900
C1337       C  0.28102356  0.31115911  0.10399714    -0.26900
C1338       C  0.28439477  0.33098455  0.12775081    -0.14900
C1339       C  0.28089649  0.36156100  0.12247357     0.35700
C1340       C  0.27272639  0.37164813  0.09415993    -0.26300
C1341       C  0.26757060  0.35173222  0.07085813    -0.15500
C1342       C  0.27237536  0.32120598  0.07571383     0.36800
N1343       N  0.26691777  0.29982448  0.05297722    -0.89800
H1344       H  0.28347559  0.28754530  0.10782454     0.17900
H1345       H  0.26957048  0.39521498  0.09053429     0.17900
N1346       N  0.28541812  0.38243698  0.14587723    -0.88800
H1347       H  0.28124457  0.30424867  0.03531333     0.35300
H1348       H  0.24505881  0.30214846  0.04545543     0.40400
H1349       H  0.26578652  0.39429744  0.14853042     0.40000
H1350       H  0.30204182  0.39739255  0.13925890     0.34900
C1351       C  0.97993084  0.35551049  0.44649952    -0.26900
C1352       C  0.98184323  0.38087451  0.42803598    -0.14900
C1353       C  0.98968581  0.37729358  0.39802535     0.35700
C1354       C  0.99615445  0.34900220  0.38737061    -0.26300
C1355       C  0.99568701  0.32392956  0.40612990    -0.15500
C1356       C  0.98714680  0.32725838  0.43597163     0.36800
N1357       N  0.98728045  0.30278256  0.45644358    -0.89800
H1358       H  0.97420361  0.35780245  0.46968681     0.17900
H1359       H  0.00257344  0.34673811  0.36434799     0.17900
N1360       N  0.99137904  0.40230742  0.37824794    -0.88800
H1361       H  0.00850847  0.29359965  0.45669047     0.35300
H1362       H  0.97221190  0.28674620  0.44897568     0.40400
H1363       H  0.97683898  0.39851489  0.36050303     0.40000
H1364       H  0.01295101  0.40358538  0.36981969     0.34900
C1365       C  0.01701590  0.17511038  0.45090542    -0.26900
C1366       C  0.99600343  0.15568979  0.43819043    -0.14900
C1367       C  0.97716846  0.16668833  0.41547187     0.35700
C1368       C  0.98070763  0.19597396  0.40507263    -0.26300
C1369       C  0.00282764  0.21464051  0.41668016    -0.15500
C1370       C  0.02048773  0.20441777  0.44068109     0.36800
N1371       N  0.04250332  0.22291226  0.45478591    -0.89800
H1372       H  0.03112081  0.16746429  0.46890138     0.17900
H1373       H  0.96733658  0.20350385  0.38645738     0.17900
N1374       N  0.95531354  0.14790978  0.40183911    -0.88800
H1375       H  0.03668425  0.22464335  0.47713561     0.35300
H1376       H  0.04217080  0.24451891  0.44629175     0.40400
H1377       H  0.95992879  0.14686488  0.37915376     0.40000
H1378       H  0.93457677  0.15779722  0.40428562     0.34900
C1379       C  0.12601864  0.27516684  0.35758253    -0.26900
C1380       C  0.13080980  0.27647280  0.32697256    -0.14900
C1381       C  0.10615020  0.27409567  0.30748640     0.35700
C1382       C  0.07750687  0.27059355  0.31897903    -0.26300
C1383       C  0.07242506  0.26994102  0.34977018    -0.15500
C1384       C  0.09731214  0.27237003  0.36910229     0.36800
N1385       N  0.09349555  0.27236070  0.40067119    -0.89800
H1386       H  0.14466168  0.27695668  0.37278592     0.17900
H1387       H  0.05948491  0.26892276  0.30327258     0.17900
N1388       N  0.10943277  0.27440969  0.27586530    -0.88800
H1389       H  0.10236890  0.29216794  0.40890949     0.35300
H1390       H  0.10566825  0.25479932  0.40969599     0.40400
H1391       H  0.12442178  0.25792797  0.26998163     0.40000
H1392       H  0.11774454  0.29510077  0.26916823     0.34900
C1393       C  0.89097799  0.99236558  0.18299369    -0.26900
C1394       C  0.90673980  0.00606114  0.20633942    -0.14900
C1395       C  0.93555086  0.01746275  0.20046872     0.35700
C1396       C  0.94735084  0.01536047  0.17159932    -0.26300
C1397       C  0.93104862  0.00237465  0.14841244    -0.37900
C1398       C  0.90270316  0.99018786  0.15436821     0.36800
N1399       N  0.88475894  0.97620884  0.13188155    -0.89800
H1400       H  0.86891737  0.98347814  0.18660093     0.17900
H1401       H  0.96901922  0.02487440  0.16685841     0.17900
N1402       N  0.95227668  0.03227413  0.22327698    -0.88800
H1403       H  0.88140716  0.95410768  0.13836902     0.35300
H1404       H  0.89554535  0.97567685  0.11145974     0.40400
H1405       H  0.94089389  0.05151283  0.22885907     0.40000
H1406       H  0.97302241  0.03913376  0.21532324     0.34900
C1407       C  0.87666522  0.00654924  0.34491428    -0.26900
C1408       C  0.89529312  0.01633439  0.32147165    -0.14900
C1409       C  0.92087443  0.03342941  0.32953517     0.35700
C1410       C  0.92818495  0.03754421  0.35962591    -0.26300
C1411       C  0.91041993  0.02578246  0.38245218    -0.15500
C1412       C  0.88392551  0.01080794  0.37487714     0.36800
N1413       N  0.86389886  0.00066108  0.39769768    -0.89800
H1414       H  0.85521782  0.99674469  0.34030551     0.17900
H1415       H  0.94830781  0.04968492  0.36516943     0.17900
N1416       N  0.93967027  0.04765020  0.30806424    -0.88800
H1417       H  0.84541537  0.98984600  0.38855908     0.35300
H1418       H  0.85593181  0.01936438  0.40853271     0.40400
H1419       H  0.92681452  0.06039595  0.29351111     0.40000
H1420       H  0.95127850  0.03163312  0.29646272     0.34900
C1421       C  0.82201342  0.08791144  0.26157666    -0.26900
C1422       C  0.84173275  0.07284815  0.24316184    -0.14900
C1423       C  0.85290818  0.08733319  0.21751628     0.35700
C1424       C  0.84564434  0.11727143  0.21202364    -0.26300
C1425       C  0.82814274  0.13287303  0.23209661    -0.15500
C1426       C  0.81511695  0.11774486  0.25632042     0.36800
N1427       N  0.79552512  0.13308164  0.27594517    -0.89800
H1428       H  0.81316309  0.07670986  0.28104605     0.17900
H1429       H  0.85519819  0.12895758  0.19319194     0.17900
N1430       N  0.87310220  0.07237999  0.19830309    -0.88800
H1431       H  0.78806762  0.11890417  0.29288012     0.35300
H1432       H  0.77676368  0.13914774  0.26364418     0.40400
H1433       H  0.89281474  0.06933933  0.21018590     0.40000
H1434       H  0.87851960  0.08581697  0.18005267     0.34900
C1435       C  0.92231838  0.24318654  0.30453654    -0.26900
C1436       C  0.90016375  0.26266772  0.31417870    -0.14900
C1437       C  0.90708767  0.28196543  0.33814996     0.35700
C1438       C  0.93532009  0.28164149  0.35109525    -0.26300
C1439       C  0.95752078  0.26270780  0.34111039    -0.15500
C1440       C  0.95087203  0.24297331  0.31775507     0.36800
N1441       N  0.97288118  0.22247346  0.30787336    -0.89800
H1442       H  0.91744327  0.22820237  0.28646789     0.17900
H1443       H  0.94004794  0.29688804  0.36900531     0.17900
N1444       N  0.88594110  0.30189996  0.35049590    -0.88800
H1445       H  0.96452013  0.20950758  0.29057691     0.35300
H1446       H  0.97743669  0.20797439  0.32552507     0.40400
H1447       H  0.86692143  0.28993112  0.35665969     0.40000
H1448       H  0.88058204  0.31815135  0.33475213     0.34900
C1449       C  0.62223664  0.27070804  0.13480555    -0.26900
C1450       C  0.63017426  0.27639047  0.16424449    -0.14900
C1451       C  0.60794276  0.27673778  0.18629782     0.35700
C1452       C  0.57850477  0.26866082  0.17872873    -0.26300
C1453       C  0.57124891  0.26051073  0.14962489    -0.15500
C1454       C  0.59290584  0.26343898  0.12714870     0.36800
N1455       N  0.58516472  0.25787234  0.09671716    -0.89800
H1456       H  0.63925301  0.27096924  0.11787222     0.17900
H1457       H  0.56172998  0.26687304  0.19582284     0.17900
N1458       N  0.61563828  0.28360283  0.21647158    -0.88800
H1459       H  0.60371057  0.26033592  0.08302500     0.35300
H1460       H  0.57014227  0.27418998  0.09012393     0.40400
H1461       H  0.62964202  0.26692167  0.22439552     0.40000
H1462       H  0.59673620  0.28301325  0.22985067     0.34900
C1463       C  0.01532852  0.34539995  0.95568548    -0.26900
C1464       C  0.01797881  0.37132364  0.93820473    -0.14900
C1465       C  0.01681989  0.36888788  0.90700754     0.35700
C1466       C  0.01179263  0.34122191  0.89397773    -0.26300
C1467       C  0.00782126  0.31559978  0.91136972    -0.15500
C1468       C  0.00999219  0.31764361  0.94256677     0.36800
N1469       N  0.00530208  0.29229398  0.96140899    -0.89800
H1470       H  0.01603034  0.34689892  0.97966347     0.17900
H1471       H  0.01038537  0.33982658  0.87000002     0.17900
N1472       N  0.02077517  0.39452241  0.88837094    -0.88800
H1473       H  0.02131022  0.27648390  0.95653292     0.35300
H1474       H  0.98436160  0.28326910  0.95666083     0.40400
H1475       H  0.00180344  0.39680207  0.87511278     0.40000
H1476       H  0.03881418  0.39076914  0.87442446     0.34900
C1477       C  0.97956745  0.19873237  0.94128782    -0.26900
C1478       C  0.00197827  0.20837622  0.92181885    -0.14900
C1479       C  0.02618627  0.18979429  0.91651575     0.35700
C1480       C  0.02632913  0.16107012  0.92850614    -0.26300
C1481       C  0.00258064  0.15023393  0.94582657    -0.15500
C1482       C  0.97970792  0.16998682  0.95366371     0.36800
N1483       N  0.95632295  0.16074093  0.97338376    -0.89800
H1484       H  0.96105067  0.21323743  0.94557126     0.17900
H1485       H  0.04466253  0.14679162  0.92296359     0.17900
N1486       N  0.04970597  0.19910229  0.89726239    -0.88800
H1487       H  0.94089103  0.17768585  0.97599332     0.35300
H1488       H  0.96587790  0.15715542  0.99428955     0.40400
H1489       H  0.05085832  0.18401144  0.87983300     0.40000
H1490       H  0.06964480  0.19804071  0.90916957     0.34900
C1491       C  0.06049544  0.22597201  0.83266257    -0.26900
C1492       C  0.05521874  0.25051718  0.85070261    -0.14900
C1493       C  0.07945950  0.26796472  0.86023430     0.35700
C1494       C  0.10846023  0.26048792  0.85192757    -0.26300
C1495       C  0.11401850  0.23560240  0.83420989    -0.15500
C1496       C  0.08953125  0.21789202  0.82484198     0.36800
N1497       N  0.09408440  0.19146531  0.80789373    -0.89800
H1498       H  0.04192188  0.21215236  0.82583356     0.17900
H1499       H  0.12666821  0.27461687  0.85908277     0.17900
N1500       N  0.07466133  0.29381817  0.87774216    -0.88800
H1501       H  0.07380476  0.18141698  0.80238564     0.35300
H1502       H  0.10531171  0.17638958  0.82156690     0.40400
H1503       H  0.08330546  0.31217510  0.86624981     0.40000
H1504       H  0.08658124  0.29146349  0.89757404     0.34900
C1505       C  0.26739548  0.32478150  0.91562741    -0.26900
C1506       C  0.24121242  0.30913035  0.90821818    -0.14900
C1507       C  0.21932985  0.30477084  0.93045409     0.35700
C1508       C  0.22327897  0.31764804  0.95825263    -0.26300
C1509       C  0.24827998  0.33527728  0.96465440    -0.15500
C1510       C  0.27104960  0.33786705  0.94357111     0.36800
N1511       N  0.29705264  0.35528122  0.94968212    -0.89800
H1512       H  0.28482850  0.32773685  0.89934592     0.17900
H1513       H  0.20558667  0.31561286  0.97440643     0.17900
N1514       N  0.19211433  0.28890169  0.92525765    -0.88800
H1515       H  0.29849977  0.37217278  0.93369137     0.35300
H1516       H  0.31556179  0.34169095  0.94740963     0.40400
H1517       H  0.19691473  0.26681527  0.92057875     0.40000
H1518       H  0.18101443  0.29864505  0.90727878     0.34900
C1519       C  0.25492537  0.14157966  0.59974464    -0.26900
C1520       C  0.25618471  0.16211347  0.57581498    -0.14900
C1521       C  0.26269705  0.19213976  0.58247645     0.35700
C1522       C  0.26740501  0.20054275  0.61211646    -0.26300
C1523       C  0.26556894  0.17989105  0.63559449    -0.15500
C1524       C  0.25929246  0.15011289  0.62919367     0.36800
N1525       N  0.25797945  0.12823969  0.65242428    -0.89800
H1526       H  0.25051591  0.11832196  0.59547485     0.17900
H1527       H  0.27210986  0.22365569  0.61680034     0.17900
N1528       N  0.26495944  0.21438458  0.55983216    -0.88800
H1529       H  0.27379571  0.11205738  0.64801935     0.35300
H1530       H  0.23700034  0.11812997  0.65177916     0.40400
H1531       H  0.24946495  0.23087306  0.56425943     0.40000
H1532       H  0.28617859  0.22392402  0.56094771     0.34900
C1533       C  0.52658009  0.31174835  0.59060209    -0.26900
C1534       C  0.49958653  0.29595932  0.59004117    -0.14900
C1535       C  0.47475611  0.30892607  0.57595313     0.35700
C1536       C  0.47660889  0.33831732  0.56547656    -0.26300
C1537       C  0.50299551  0.35494430  0.56804659    -0.15500
C1538       C  0.52863651  0.34109527  0.57956271     0.36800
N1539       N  0.55615674  0.35735415  0.58164496    -0.89800
H1540       H  0.54542222  0.30225876  0.60189653     0.17900
H1541       H  0.45708590  0.34858675  0.55589419     0.17900
N1542       N  0.44725005  0.29260043  0.57386038    -0.88800
H1543       H  0.57287948  0.34390924  0.59043694     0.35300
H1544       H  0.55313503  0.37454277  0.59671813     0.40400
H1545       H  0.45095414  0.27424176  0.56041770     0.40000
H1546       H  0.43099702  0.30531341  0.56324156     0.34900
C1547       C  0.51640427  0.16852737  0.60118714    -0.26900
C1548       C  0.49262380  0.18755222  0.59568893    -0.14900
C1549       C  0.46806830  0.17691596  0.57905655     0.35700
C1550       C  0.46696395  0.14720445  0.57000742    -0.26300
C1551       C  0.48987813  0.12734274  0.57718940    -0.15500
C1552       C  0.51536022  0.13872425  0.59217576     0.36800
N1553       N  0.54015078  0.12012874  0.59891489    -0.89800
H1554       H  0.53527756  0.17636120  0.61402450     0.17900
H1555       H  0.44768658  0.13954933  0.55771036     0.17900
N1556       N  0.44395819  0.19589447  0.57091851    -0.88800
H1557       H  0.54339168  0.12002087  0.62190858     0.35300
H1558       H  0.55902708  0.12953303  0.58905557     0.40400
H1559       H  0.45265851  0.21427979  0.55950965     0.40000
H1560       H  0.43351690  0.20331534  0.59005696     0.34900
C1561       C  0.41821455  0.24766640  0.65760110    -0.26900
C1562       C  0.44539180  0.24863823  0.67344675    -0.14900
C1563       C  0.44390651  0.25378816  0.70457257     0.35700
C1564       C  0.41615861  0.25777637  0.71818996    -0.26300
C1565       C  0.38947964  0.25633378  0.70196275    -0.15500
C1566       C  0.39068657  0.25118873  0.67121726     0.36800
N1567       N  0.36395840  0.25012821  0.65360659    -0.89800
H1568       H  0.41847234  0.24449783  0.63378799     0.17900
H1569       H  0.41545505  0.26160578  0.74188535     0.17900
N1570       N  0.46949371  0.25550747  0.72328186    -0.88800
H1571       H  0.36866765  0.24545460  0.63144617     0.35300
H1572       H  0.35465013  0.27127840  0.65379038     0.40400
H1573       H  0.48333095  0.27265330  0.71568522     0.40000
H1574       H  0.48013322  0.23503540  0.72325904     0.34900
C1575       C  0.24529042  0.81368826  0.93979179    -0.26900
C1576       C  0.24708155  0.84476640  0.94270783    -0.14900
C1577       C  0.24843802  0.86229780  0.91637403     0.35700
C1578       C  0.24710150  0.84896037  0.88853112    -0.26300
C1579       C  0.24552082  0.81820590  0.88575416    -0.15500
C1580       C  0.24473472  0.80020258  0.91169521     0.36800
N1581       N  0.24256803  0.76839135  0.91053165    -0.89800
H1582       H  0.24478097  0.79942573  0.95913926     0.17900
H1583       H  0.24785081  0.86286967  0.86877866     0.17900
N1584       N  0.25158008  0.89393079  0.91776295    -0.88800
H1585       H  0.26207497  0.75980834  0.91971190     0.35300
H1586       H  0.24123880  0.76077321  0.88877361     0.40400
H1587       H  0.23358933  0.90344591  0.90658318     0.40000
H1588       H  0.27099851  0.90009888  0.90658188     0.34900
C1589       C  0.33764361  0.87828856  0.00488603    -0.26900
C1590       C  0.31519136  0.89922245  0.00974192    -0.14900
C1591       C  0.32334387  0.92783235  0.01934844     0.35700
C1592       C  0.35383024  0.93540869  0.02187541    -0.26300
C1593       C  0.37608950  0.91505969  0.01430993    -0.15500
C1594       C  0.36781504  0.88594197  0.00668790     0.36800
N1595       N  0.39013718  0.86429532  0.00045202    -0.89800
H1596       H  0.33155114  0.85590421  0.99857152     0.17900
H1597       H  0.36021601  0.95769921  0.02822512     0.17900
N1598       N  0.30085841  0.94931343  0.02537847    -0.88800
H1599       H  0.38037097  0.84397451  0.99482061     0.35300
H1600       H  0.40218896  0.86065556  0.02001491     0.40400
H1601       H  0.28967425  0.95379965  0.00548019     0.40000
H1602       H  0.31056078  0.96929088  0.03219401     0.34900
C1603       C  0.15861920  0.92860611  0.03514548    -0.26900
C1604       C  0.14753199  0.94671076  0.01207776    -0.14900
C1605       C  0.16681320  0.95441670  0.98846424     0.35700
C1606       C  0.19522715  0.94191081  0.98711030    -0.26300
C1607       C  0.20525327  0.92183627  0.00889037    -0.15500
C1608       C  0.18722027  0.91627503  0.03391138     0.36800
N1609       N  0.19706182  0.89662468  0.05708761    -0.89800
H1610       H  0.14453989  0.92307576  0.05384844     0.17900
H1611       H  0.20890459  0.94647056  0.96783529     0.17900
N1612       N  0.15751262  0.97422509  0.96526266    -0.88800
H1613       H  0.18033011  0.89308384  0.07276110     0.35300
H1614       H  0.21441239  0.90732695  0.06826990     0.40400
H1615       H  0.15877017  0.96304157  0.94508744     0.40000
H1616       H  0.17245286  0.99210172  0.96450736     0.34900
C1617       C  0.21549608  0.82045639  0.09611407    -0.26900
C1618       C  0.23337485  0.83168063  0.11926902    -0.14900
C1619       C  0.25679168  0.85146017  0.11172240     0.35700
C1620       C  0.26213134  0.85890297  0.08179767    -0.26300
C1621       C  0.24433900  0.84759852  0.05873053    -0.15500
C1622       C  0.22037179  0.82847927  0.06616926     0.36800
N1623       N  0.20037062  0.81803475  0.04352672    -0.89800
H1624       H  0.19727200  0.80550320  0.10135496     0.17900
H1625       H  0.28044719  0.87378977  0.07663585     0.17900
N1626       N  0.27546586  0.86404191  0.13423140    -0.88800
H1627       H  0.18938118  0.83645390  0.03468986     0.35300
H1628       H  0.18400966  0.80415226  0.05263756     0.40400
H1629       H  0.27400406  0.88713600  0.13268249     0.40000
H1630       H  0.29739509  0.85816363  0.12982860     0.34900
C1631       C  0.29678229  0.92643504  0.23527037    -0.26900
C1632       C  0.31208363  0.90199753  0.24746270    -0.14900
C1633       C  0.33869802  0.90738769  0.26354988     0.35700
C1634       C  0.35064519  0.93623816  0.26426077    -0.26300
C1635       C  0.33579115  0.96031115  0.25134929    -0.15500
C1636       C  0.30839990  0.95546644  0.23702908     0.36800
N1637       N  0.29309860  0.97988888  0.22330886    -0.89800
H1638       H  0.27606359  0.92285754  0.22349061     0.17900
H1639       H  0.37276318  0.93954821  0.27312380     0.17900
N1640       N  0.35425712  0.88360439  0.27812369    -0.88800
H1641       H  0.27302038  0.97269266  0.21399012     0.35300
H1642       H  0.30611295  0.98776853  0.20572371     0.40400
H1643       H  0.34114604  0.87639381  0.29592029     0.40000
H1644       H  0.37415273  0.89125828  0.28749116     0.34900
C1645       C  0.15258508  0.61659327  0.28129550    -0.26900
C1646       C  0.17959261  0.62493825  0.26827439    -0.14900
C1647       C  0.19573251  0.60355283  0.25222402     0.35700
C1648       C  0.18445093  0.57450619  0.24983865    -0.26300
C1649       C  0.15736453  0.56597707  0.26288132    -0.15500
C1650       C  0.14150794  0.58741596  0.27904898     0.36800
N1651       N  0.11464625  0.57963539  0.29417127    -0.89800
H1652       H  0.14027637  0.63268857  0.29390552     0.17900
H1653       H  0.19679760  0.55862022  0.23702357     0.17900
N1654       N  0.22337367  0.61043884  0.23770203    -0.88800
H1655       H  0.09776248  0.59332310  0.28612165     0.35300
H1656       H  0.11760158  0.58411301  0.31672565     0.40400
H1657       H  0.22955174  0.63261568  0.24020152     0.40000
H1658       H  0.22017934  0.60730611  0.21493907     0.34900
C1659       C  0.05538483  0.73455214  0.18809676    -0.26900
C1660       C  0.04886544  0.75857324  0.16931171    -0.14900
C1661       C  0.07048379  0.78083532  0.16478344     0.35700
C1662       C  0.09901297  0.77747339  0.17702435    -0.26300
C1663       C  0.10644734  0.75202175  0.19367916    -0.15500
C1664       C  0.08387150  0.73089905  0.20008995     0.36800
N1665       N  0.09001990  0.70478212  0.21730414    -0.89800
H1666       H  0.03894377  0.71711849  0.19135443     0.17900
H1667       H  0.11566785  0.79440339  0.17254998     0.17900
N1668       N  0.06421545  0.80584898  0.14608589    -0.88800
H1669       H  0.08532939  0.68626031  0.20423275     0.35300
H1670       H  0.07564203  0.70428964  0.23545398     0.40400
H1671       H  0.06774587  0.82508132  0.15844190     0.40000
H1672       H  0.07933269  0.80601270  0.12854831     0.34900
C1673       C  0.02553208  0.68535059  0.08329874    -0.26900
C1674       C  0.00311210  0.70691914  0.08134062    -0.14900
C1675       C  0.97927775  0.70131305  0.06127891     0.35700
C1676       C  0.97469519  0.67255329  0.05049043    -0.26300
C1677       C  0.99433327  0.64954013  0.05775191    -0.15500
C1678       C  0.02128238  0.65673956  0.07217028     0.36800
N1679       N  0.04428054  0.63501021  0.07559438    -0.89800
H1680       H  0.04660084  0.69017920  0.09358234     0.17900
H1681       H  0.95527330  0.66811166  0.03690520     0.17900
N1682       N  0.95981000  0.72419873  0.05087158    -0.88800
H1683       H  0.06246693  0.64370725  0.08723454     0.35300
H1684       H  0.05190400  0.62987050  0.05439243     0.40400
H1685       H  0.97256037  0.74075442  0.04056768     0.40000
H1686       H  0.94821573  0.73345978  0.06836837     0.34900
C1687       C  0.03171886  0.82822927  0.08272337    -0.26900
C1688       C  0.00820948  0.81877250  0.10094697    -0.14900
C1689       C  0.98897086  0.84006496  0.11267890     0.35700
C1690       C  0.99359325  0.87011624  0.10633653    -0.26300
C1691       C  0.01677697  0.87989507  0.08775713    -0.15500
C1692       C  0.03627129  0.85839436  0.07602319     0.36800
N1693       N  0.06050720  0.86617496  0.05693327    -0.89800
H1694       H  0.04690548  0.81207525  0.07388836     0.17900
H1695       H  0.97821591  0.88583306  0.11561470     0.17900
N1696       N  0.96390048  0.83130451  0.13022651    -0.88800
H1697       H  0.07490609  0.88047388  0.06827777     0.35300
H1698       H  0.05217228  0.87688231  0.03803451     0.40400
H1699       H  0.94467665  0.83891985  0.11966162     0.40000
H1700       H  0.96562675  0.84173547  0.15080124     0.34900
C1701       C  0.25165770  0.69224345  0.59607710    -0.26900
C1702       C  0.22844035  0.68066171  0.61335059    -0.14900
C1703       C  0.20571723  0.66389079  0.59944474     0.35700
C1704       C  0.20846253  0.65637074  0.56939662    -0.26300
C1705       C  0.23326766  0.66569926  0.55289732    -0.15500
C1706       C  0.25396331  0.68558445  0.56591698     0.36800
N1707       N  0.27891805  0.69739018  0.54969396    -0.89800
H1708       H  0.26861613  0.70604132  0.60629633     0.17900
H1709       H  0.19265851  0.64093030  0.55976515     0.17900
N1710       N  0.18085647  0.65245049  0.61576075    -0.88800
H1711       H  0.27750094  0.72050846  0.55015210     0.35300
H1712       H  0.27762309  0.69169541  0.52730301     0.40400
H1713       H  0.16908761  0.67031647  0.62425747     0.40000
H1714       H  0.18880736  0.63968009  0.63351956     0.34900
C1715       C  0.30780839  0.56190776  0.50989491    -0.26900
C1716       C  0.30467929  0.59242237  0.51555224    -0.14900
C1717       C  0.33087440  0.60917594  0.52295475     0.35700
C1718       C  0.35837832  0.59558676  0.52329948    -0.26300
C1719       C  0.36133557  0.56579601  0.51650242    -0.15500
C1720       C  0.33583402  0.54842049  0.51013895     0.36800
N1721       N  0.33759453  0.51765717  0.50222547    -0.89800
H1722       H  0.28886806  0.54850752  0.50358516     0.17900
H1723       H  0.37800864  0.60884721  0.52815564     0.17900
N1724       N  0.33107602  0.64035765  0.52921933    -0.88800
H1725       H  0.32617702  0.50536396  0.51838603     0.35300
H1726       H  0.35944219  0.51016844  0.50252660     0.40400
H1727       H  0.32054696  0.64443478  0.54928722     0.40000
H1728       H  0.32151261  0.65251852  0.51194400     0.34900
C1729       C  0.17477590  0.58968640  0.51816351    -0.26900
C1730       C  0.19107880  0.59802641  0.49291432    -0.14900
C1731       C  0.17656712  0.59874667  0.46503492     0.35700
C1732       C  0.14657047  0.59076886  0.46284164    -0.26300
C1733       C  0.13017551  0.58273152  0.48804498    -0.15500
C1734       C  0.14439127  0.58207007  0.51603708     0.36800
N1735       N  0.12810674  0.57311344  0.54202215    -0.89800
H1736       H  0.18575079  0.58936723  0.53961003     0.17900
H1737       H  0.13593221  0.59085493  0.44120635     0.17900
N1738       N  0.19181918  0.60687915  0.43841830    -0.88800
H1739       H  0.14175868  0.57393950  0.56083391     0.35300
H1740       H  0.12183533  0.55090230  0.53939758     0.40400
H1741       H  0.20905689  0.59191065  0.43553606     0.40000
H1742       H  0.20054498  0.62824643  0.44086121     0.34900
C1743       C  0.25074089  0.69133750  0.44453966    -0.26900
C1744       C  0.25424920  0.66047195  0.44587258    -0.14900
C1745       C  0.25995827  0.64483207  0.41919300     0.35700
C1746       C  0.26251604  0.66045060  0.39247524    -0.26300
C1747       C  0.26005297  0.69127391  0.39124529    -0.15500
C1748       C  0.25372804  0.70698845  0.41742107     0.36800
N1749       N  0.25021391  0.73862256  0.41632850    -0.89800
H1750       H  0.24660704  0.70331359  0.46482664     0.17900
H1751       H  0.26693875  0.64825885  0.37236186     0.17900
N1752       N  0.26301734  0.61313204  0.41792680    -0.88800
H1753       H  0.24573482  0.74677270  0.43747412     0.35300
H1754       H  0.23153562  0.74310751  0.40323222     0.40400
H1755       H  0.25815535  0.60255381  0.43794549     0.40000
H1756       H  0.28512738  0.60857742  0.41285424     0.34900
C1757       C  0.56179476  0.46235211  0.16247346    -0.26900
C1758       C  0.56674258  0.48213694  0.13867432    -0.14900
C1759       C  0.58147673  0.50937165  0.14444341     0.35700
C1760       C  0.59180240  0.51564581  0.17311890    -0.26300
C1761       C  0.58714122  0.49585244  0.19680594    -0.15500
C1762       C  0.57170250  0.46886027  0.19132373     0.36800
N1763       N  0.56700861  0.44692022  0.21405598    -0.89800
H1764       H  0.55050972  0.44140540  0.15860568     0.17900
H1765       H  0.60373545  0.53626169  0.17682084     0.17900
N1766       N  0.58566164  0.53110959  0.12140536    -0.88800
H1767       H  0.55242678  0.45525953  0.22975245     0.35300
H1768       H  0.58728466  0.44218070  0.22433823     0.40400
H1769       H  0.60841609  0.53543294  0.11943212     0.40000
H1770       H  0.57536568  0.55068422  0.12790405     0.34900
C1771       C  0.55543760  0.52477599  0.34626552    -0.26900
C1772       C  0.57070581  0.51075173  0.36956098    -0.14900
C1773       C  0.59863196  0.49834561  0.36396828     0.35700
C1774       C  0.60973215  0.49846500  0.33501975    -0.26300
C1775       C  0.59342285  0.50977910  0.31056641    -0.15500
C1776       C  0.56642066  0.52473061  0.31710313     0.36800
N1777       N  0.54983957  0.54088913  0.29522502    -0.89800
H1778       H  0.53442205  0.53537725  0.35060353     0.17900
H1779       H  0.63210943  0.49072768  0.33237695     0.17900
N1780       N  0.61612394  0.48629376  0.38795354    -0.88800
H1781       H  0.53983011  0.52630687  0.28038298     0.35300
H1782       H  0.56392226  0.55563841  0.28403691     0.40400
H1783       H  0.62178240  0.50376814  0.40205878     0.40000
H1784       H  0.63606153  0.47765415  0.38018896     0.34900
C1785       C  0.67783739  0.41768089  0.21512633    -0.26900
C1786       C  0.69555222  0.40663995  0.23855468    -0.14900
C1787       C  0.70168342  0.42575264  0.26279963     0.35700
C1788       C  0.68812817  0.45352164  0.26407882    -0.26300
C1789       C  0.66803752  0.46310530  0.24212373    -0.15500
C1790       C  0.66407568  0.44550230  0.21671817     0.36800
N1791       N  0.64495679  0.45488231  0.19307727    -0.89800
H1792       H  0.67345479  0.40415091  0.19582382     0.17900
H1793       H  0.69193835  0.46708024  0.28350180     0.17900
N1794       N  0.72078555  0.41761640  0.28698816    -0.88800
H1795       H  0.62872564  0.43847720  0.18996144     0.35300
H1796       H  0.65755769  0.45624997  0.17368593     0.40400
H1797       H  0.74173239  0.41253760  0.27864994     0.40000
H1798       H  0.71174410  0.39921345  0.29806828     0.34900
C1799       C  0.77017646  0.37905748  0.40356920    -0.26900
C1800       C  0.76696100  0.35632021  0.42483982    -0.14900
C1801       C  0.77110552  0.32662000  0.41637758     0.35700
C1802       C  0.77680375  0.32014874  0.38656115    -0.26300
C1803       C  0.77758186  0.34279607  0.36492705    -0.15500
C1804       C  0.77517049  0.37259411  0.37375113     0.36800
N1805       N  0.77735174  0.39664063  0.35285114    -0.89800
H1806       H  0.76718270  0.40195248  0.40996767     0.17900
H1807       H  0.77858093  0.29718460  0.37993471     0.17900
N1808       N  0.76769473  0.30262328  0.43715078    -0.88800
H1809       H  0.76019625  0.39464697  0.33730556     0.35300
H1810       H  0.79762271  0.39502562  0.34180046     0.40400
H1811       H  0.74634049  0.30351020  0.44606865     0.40000
H1812       H  0.78302952  0.30564980  0.45435568     0.34900
C1813       C  0.65065383  0.43922469  0.47647611    -0.26900
C1814       C  0.62791653  0.42134584  0.48860591    -0.14900
C1815       C  0.63470332  0.39221560  0.49783608     0.35700
C1816       C  0.66366905  0.38210343  0.49574920    -0.26300
C1817       C  0.68738924  0.40071658  0.48660530    -0.15500
C1818       C  0.68024152  0.42914411  0.47505221     0.36800
N1819       N  0.70278587  0.44758264  0.46169548    -0.89800
H1820       H  0.64537299  0.46125513  0.46836168     0.17900
H1821       H  0.66705519  0.35896556  0.50101743     0.17900
N1822       N  0.61252550  0.37178797  0.50851654    -0.88800
H1823       H  0.69391237  0.46783351  0.45471235     0.35300
H1824       H  0.71006624  0.43695595  0.44257840     0.40400
H1825       H  0.59534285  0.37043109  0.49289665     0.40000
H1826       H  0.60420143  0.37938396  0.52863166     0.34900
C1827       C  0.82387924  0.40987459  0.47735534    -0.26900
C1828       C  0.80128566  0.41227035  0.49844270    -0.14900
C1829       C  0.80678523  0.42875296  0.52431596     0.35700
C1830       C  0.83446376  0.44304887  0.52840534    -0.26300
C1831       C  0.85718805  0.44087120  0.50720666    -0.15500
C1832       C  0.85156721  0.42410438  0.48119831     0.36800
N1833       N  0.87372671  0.42188991  0.45845509    -0.89800
H1834       H  0.81969072  0.39720253  0.45741904     0.17900
H1835       H  0.83835510  0.45542579  0.54857074     0.17900
N1836       N  0.78472028  0.43009830  0.54700882    -0.88800
H1837       H  0.87678205  0.44305865  0.44923149     0.35300
H1838       H  0.86629419  0.40828330  0.44123089     0.40400
H1839       H  0.77988273  0.45239869  0.55061642     0.40000
H1840       H  0.79381789  0.42135461  0.56656633     0.34900
C1841       C  0.29916872  0.58823866  0.73193188    -0.26900
C1842       C  0.31457222  0.61298122  0.74300733    -0.14900
C1843       C  0.34227584  0.60879325  0.75686662     0.35700
C1844       C  0.35328755  0.58013014  0.76061226    -0.26300
C1845       C  0.33718512  0.55452177  0.75187564    -0.15500
C1846       C  0.31016219  0.55928348  0.73587090     0.36800
N1847       N  0.29353729  0.53558569  0.72266348    -0.89800
H1848       H  0.27808247  0.59132365  0.72069862     0.17900
H1849       H  0.37562229  0.57852049  0.76911583     0.17900
N1850       N  0.35963156  0.63391895  0.76656463    -0.88800
H1851       H  0.28441252  0.52224324  0.73933469     0.35300
H1852       H  0.30750922  0.52312972  0.70929567     0.40400
H1853       H  0.36562307  0.64621297  0.74770255     0.40000
H1854       H  0.37938422  0.62719471  0.77675230     0.34900
C1855       C  0.33808001  0.38689118  0.75557601    -0.26900
C1856       C  0.32343347  0.38102684  0.78254880    -0.14900
C1857       C  0.31800648  0.40504389  0.80183788     0.35700
C1858       C  0.32633329  0.43413602  0.79320481    -0.26300
C1859       C  0.34102374  0.43972182  0.76629826    -0.15500
C1860       C  0.34687660  0.41579439  0.74741244     0.36800
N1861       N  0.36104872  0.42086620  0.71941298    -0.89800
H1862       H  0.34218254  0.36902423  0.74025442     0.17900
H1863       H  0.32239439  0.45242037  0.80807106     0.17900
N1864       N  0.30458361  0.39985232  0.83031569    -0.88800
H1865       H  0.34681395  0.41327168  0.70267872     0.35300
H1866       H  0.38036335  0.40821184  0.71889906     0.40400
H1867       H  0.30209655  0.41978546  0.84167373     0.40000
H1868       H  0.31928965  0.38701135  0.84290855     0.34900
C1869       C  0.43726736  0.51657610  0.80683566    -0.26900
C1870       C  0.41718484  0.49350854  0.80032524    -0.14900
C1871       C  0.41294533  0.47067792  0.82142594     0.35700
C1872       C  0.42681942  0.47255773  0.84940539    -0.26300
C1873       C  0.44489379  0.49704520  0.85690846    -0.15500
C1874       C  0.45097997  0.51867285  0.83476765     0.36800
N1875       N  0.46966876  0.54378059  0.84091861    -0.89800
H1876       H  0.44058796  0.53438789  0.79083096     0.17900
H1877       H  0.42242574  0.45528262  0.86571471     0.17900
N1878       N  0.39305361  0.44655802  0.81538182    -0.88800
H1879       H  0.45722616  0.56300950  0.83766540     0.35300
H1880       H  0.48701815  0.54406555  0.82558406     0.40400
H1881       H  0.37659627  0.44632937  0.83166763     0.40000
H1882       H  0.40493304  0.42683182  0.81736580     0.34900
C1883       C  0.42616917  0.47675414  0.68991526    -0.26900
C1884       C  0.39597615  0.48328020  0.69330546    -0.14900
C1885       C  0.37732692  0.48391141  0.66796085     0.35700
C1886       C  0.38976302  0.48155709  0.63966012    -0.26300
C1887       C  0.42023741  0.47732216  0.63603390    -0.15500
C1888       C  0.43855643  0.47371615  0.66133392     0.36800
N1889       N  0.46976475  0.46847937  0.65788742    -0.89800
H1890       H  0.44036898  0.47589054  0.70937078     0.17900
H1891       H  0.37568434  0.48372895  0.62019730     0.17900
N1892       N  0.34585358  0.48791134  0.67109544    -0.88800
H1893       H  0.48005507  0.46632752  0.67863277     0.35300
H1894       H  0.47913472  0.48723748  0.64767676     0.40400
H1895       H  0.33744026  0.46954581  0.68273791     0.40000
H1896       H  0.33533500  0.48808268  0.65036379     0.34900
C1897       C  0.76729689  0.19304694  0.04806830    -0.26900
C1898       C  0.75125110  0.16649889  0.04365318    -0.14900
C1899       C  0.73574290  0.15390432  0.06803670     0.35700
C1900       C  0.73715941  0.16747509  0.09596432    -0.26300
C1901       C  0.75399958  0.19329868  0.10044542    -0.15500
C1902       C  0.76904116  0.20647682  0.07606900     0.36800
N1903       N  0.78606984  0.23347814  0.07872233    -0.89800
H1904       H  0.77944500  0.20308675  0.02981967     0.17900
H1905       H  0.72542954  0.15737636  0.11448089     0.17900
N1906       N  0.71822007  0.12747551  0.06472966    -0.88800
H1907       H  0.80826726  0.22843220  0.07459736     0.35300
H1908       H  0.78520635  0.24206483  0.10012256     0.40400
H1909       H  0.69645211  0.13216120  0.07092864     0.40000
H1910       H  0.72640376  0.11145133  0.07950139     0.34900
C1911       C  0.65100856  0.09281401  0.00131449    -0.26900
C1912       C  0.64906814  0.06227472  0.99625879    -0.14900
C1913       C  0.67526255  0.04613151  0.99131348     0.35700
C1914       C  0.70296342  0.06116637  0.99132611    -0.26300
C1915       C  0.70466039  0.09197243  0.99557012    -0.15500
C1916       C  0.67810007  0.10790838  0.99994380     0.36800
N1917       N  0.67756826  0.13966624  0.00115166    -0.89800
H1918       H  0.63095305  0.10540873  0.00480867     0.17900
H1919       H  0.72309885  0.04911092  0.98673146     0.17900
N1920       N  0.67361109  0.01476321  0.98615680    -0.88800
H1921       H  0.68535639  0.14845259  0.98113988     0.35300
H1922       H  0.69144492  0.14687220  0.01826095     0.40400
H1923       H  0.66549688  0.00464330  0.00548716     0.40000
H1924       H  0.69481975  0.00625889  0.98271201     0.34900
C1925       C  0.86717155  0.11393170  0.01862972    -0.26900
C1926       C  0.87258612  0.08345934  0.01947268    -0.14900
C1927       C  0.84846426  0.06324653  0.01613639     0.35700
C1928       C  0.81982847  0.07431293  0.01065772    -0.26300
C1929       C  0.81486660  0.10486039  0.00800481    -0.15500
C1930       C  0.83871855  0.12495680  0.01338572     0.36800
N1931       N  0.83529003  0.15665095  0.01264951    -0.89800
H1932       H  0.88550846  0.12946140  0.02127765     0.17900
H1933       H  0.80171365  0.05888630  0.00649221     0.17900
N1934       N  0.85226202  0.03160376  0.01651196    -0.88800
H1935       H  0.84141564  0.16467214  0.03351598     0.35300
H1936       H  0.81321970  0.16265021  0.00970886     0.40400
H1937       H  0.87430187  0.02572577  0.02024576     0.40000
H1938       H  0.84661158  0.02375014  0.99544794     0.34900
C1939       C  0.17219693  0.93002515  0.76413262    -0.26900
C1940       C  0.14158935  0.93572796  0.76114737    -0.14900
C1941       C  0.12175362  0.91110937  0.75954201     0.35700
C1942       C  0.13271877  0.88221432  0.75856607    -0.26300
C1943       C  0.16309671  0.87683680  0.76097421    -0.15500
C1944       C  0.18307124  0.90082859  0.76431369     0.36800
N1945       N  0.21433201  0.89544824  0.76763959    -0.89800
H1946       H  0.18789900  0.94794892  0.76703588     0.17900
H1947       H  0.11725785  0.86374760  0.75664255     0.17900
N1948       N  0.09024424  0.91530634  0.75927660    -0.88800
H1949       H  0.22604295  0.91540226  0.77017531     0.35300
H1950       H  0.22179156  0.88603348  0.74794571     0.40400
H1951       H  0.08124633  0.90391976  0.77749354     0.40000
H1952       H  0.08158848  0.90580900  0.73996224     0.34900
C1953       C  0.18756539  0.08566933  0.73619360    -0.26900
C1954       C  0.17966895  0.10798851  0.75630348    -0.14900
C1955       C  0.15843718  0.10099044  0.77842371     0.35700
C1956       C  0.14547626  0.07254510  0.77966688    -0.26300
C1957       C  0.15314033  0.05051297  0.75937885    -0.15500
C1958       C  0.17433207  0.05720213  0.73728917     0.36800
N1959       N  0.18169775  0.03542050  0.71549463    -0.89800
H1960       H  0.20369876  0.09058885  0.71905255     0.17900
H1961       H  0.12932945  0.06762799  0.79682444     0.17900
N1962       N  0.15007891  0.12248324  0.79998440    -0.88800
H1963       H  0.19764609  0.04380475  0.70078865     0.35300
H1964       H  0.16257727  0.03118350  0.70292027     0.40400
H1965       H  0.15474029  0.11381966  0.82108238     0.40000
H1966       H  0.12714549  0.12554440  0.79836620     0.34900
C1967       C  0.04386473  0.99533917  0.67068219    -0.26900
C1968       C  0.05630509  0.01780940  0.65261061    -0.14900
C1969       C  0.07649742  0.03812943  0.66574451     0.35700
C1970       C  0.08573322  0.03393359  0.69539303    -0.26300
C1971       C  0.07520474  0.00984531  0.71234522    -0.15500
C1972       C  0.05269642  0.99133796  0.70029337     0.36800
N1973       N  0.03925745  0.96747490  0.71706172    -0.89800
H1974       H  0.02748232  0.98012581  0.66163334     0.17900
H1975       H  0.10296126  0.04824605  0.70438146     0.17900
N1976       N  0.08875233  0.06230595  0.64885548    -0.88800
H1977       H  0.01641310  0.97131274  0.71764385     0.35300
H1978       H  0.04627414  0.96771223  0.73917280     0.40400
H1979       H  0.11184648  0.06017911  0.64873327     0.40000
H1980       H  0.08366967  0.08200210  0.65970982     0.34900
C1981       C  0.10872156  0.01337956  0.87529027    -0.26900
C1982       C  0.08064455  0.02387287  0.88277606    -0.14900
C1983       C  0.06001593  0.03055169  0.85989919     0.35700
C1984       C  0.06729779  0.02435018  0.83013249    -0.26300
C1985       C  0.09462275  0.01163534  0.82309452    -0.15500
C1986       C  0.11617274  0.00776774  0.84577009     0.36800
N1987       N  0.14539867  0.99737871  0.83877562    -0.89800
H1988       H  0.12476610  0.00889777  0.89273028     0.17900
H1989       H  0.05104856  0.02783103  0.81267229     0.17900
N1990       N  0.03130268  0.04208726  0.86703562    -0.88800
H1991       H  0.15834101  0.99517396  0.85797621     0.35300
H1992       H  0.15569820  0.01363610  0.82561555     0.40400
H1993       H  0.01980630  0.02570692  0.87901422     0.40000
H1994       H  0.01898638  0.04603121  0.84769625     0.34900
C1995       C  0.38844048  0.74718157  0.33926882    -0.26900
C1996       C  0.38350526  0.77346987  0.32306479    -0.14900
C1997       C  0.40813916  0.79209919  0.31666046     0.35700
C1998       C  0.43674431  0.78413932  0.32650651    -0.26300
C1999       C  0.44152820  0.75789276  0.34283183    -0.15500
C2000       C  0.41682137  0.73916533  0.34900796     0.36800
N2001       N  0.41977013  0.71096251  0.36350178    -0.89800
H2002       H  0.37012028  0.73210621  0.34387256     0.17900
H2003       H  0.45529644  0.79889323  0.32178818     0.17900
N2004       N  0.40429673  0.81932379  0.30054780    -0.88800
H2005       H  0.42708419  0.71383170  0.38526964     0.35300
H2006       H  0.43513478  0.69855493  0.35189150     0.40400
H2007       H  0.41754728  0.81866863  0.28158113     0.40000
H2008       H  0.41201465  0.83668423  0.31382999     0.34900
C2009       C  0.48173212  0.68504511  0.43101131    -0.26900
C2010       C  0.48738053  0.68751120  0.40043841    -0.14900
C2011       C  0.48846439  0.66130854  0.38326838     0.35700
C2012       C  0.48599706  0.63354090  0.39727568    -0.26300
C2013       C  0.48235237  0.63095401  0.42797339    -0.15500
C2014       C  0.47950556  0.65688558  0.44506777     0.36800
N2015       N  0.47596987  0.65455749  0.47667786    -0.89800
H2016       H  0.48109334  0.70499595  0.44420192     0.17900
H2017       H  0.48794213  0.61358605  0.38421116     0.17900
N2018       N  0.49373476  0.66285415  0.35179382    -0.88800
H2019       H  0.47446708  0.67563815  0.48599759     0.35300
H2020       H  0.49522183  0.64498676  0.48540248     0.40400
H2021       H  0.47587311  0.67351305  0.34172091     0.40000
H2022       H  0.49454817  0.64162457  0.34267606     0.34900
C2023       C  0.47055829  0.81566807  0.40320634    -0.26900
C2024       C  0.49478132  0.79825476  0.41183068    -0.14900
C2025       C  0.51621677  0.81024857  0.43134620     0.35700
C2026       C  0.51395873  0.83989016  0.44044959    -0.26300
C2027       C  0.49075162  0.85816361  0.43036123    -0.15500
C2028       C  0.46842479  0.84544071  0.41204992     0.36800
N2029       N  0.44411922  0.86282502  0.40131835    -0.89800
H2030       H  0.45424418  0.80683213  0.38783340     0.17900
H2031       H  0.53092762  0.84889548  0.45499361     0.17900
N2032       N  0.54097143  0.79252658  0.44075010    -0.88800
H2033       H  0.42438299  0.85250975  0.40813446     0.35300
H2034       H  0.44456667  0.86275608  0.37811804     0.40400
H2035       H  0.53255855  0.77473104  0.45325591     0.40000
H2036       H  0.55503353  0.80458490  0.45478411     0.34900
C2037       C  0.82912721  0.61427579  0.99895972    -0.26900
C2038       C  0.80552730  0.59870566  0.98565957    -0.14900
C2039       C  0.81185897  0.57312827  0.96922354     0.35700
C2040       C  0.84114820  0.56280955  0.96756930    -0.26300
C2041       C  0.86488388  0.57772060  0.98166764    -0.15500
C2042       C  0.85866264  0.60428254  0.99709257     0.36800
N2043       N  0.88211316  0.62103000  0.01102509    -0.89800
H2044       H  0.82447948  0.63420972  0.01125388     0.17900
H2045       H  0.84518057  0.54279895  0.95515421     0.17900
N2046       N  0.78869921  0.55789508  0.95349046    -0.88800
H2047       H  0.87358593  0.63916568  0.02236986     0.35300
H2048       H  0.89550309  0.62982699  0.99415051     0.40400
H2049       H  0.78798922  0.53592870  0.96110139     0.40000
H2050       H  0.79424691  0.55775879  0.93098797     0.34900
C2051       C  0.63897539  0.59138192  0.01495654    -0.26900
C2052       C  0.63823204  0.56055105  0.01843306    -0.14900
C2053       C  0.66518312  0.54468116  0.01734070     0.35700
C2054       C  0.69191512  0.55983597  0.01166964    -0.26300
C2055       C  0.69258076  0.59077331  0.00719873    -0.15500
C2056       C  0.66558750  0.60655253  0.00961834     0.36800
N2057       N  0.66500436  0.63819901  0.00616217    -0.89800
H2058       H  0.61858730  0.60391355  0.01602319     0.17900
H2059       H  0.71186452  0.54689426  0.01045200     0.17900
N2060       N  0.66605711  0.51308101  0.02067214    -0.88800
H2061       H  0.65630748  0.64721180  0.02553314     0.35300
H2062       H  0.65068866  0.64339527  0.98857664     0.40400
H2063       H  0.65200816  0.50355789  0.00479364     0.40000
H2064       H  0.65845664  0.50736747  0.04185444     0.34900
C2065       C  0.78036589  0.65880658  0.06156776    -0.26900
C2066       C  0.76129677  0.67010969  0.03959363    -0.14900
C2067       C  0.74390887  0.69507728  0.04580942     0.35700
C2068       C  0.74344664  0.70628611  0.07483862    -0.26300
C2069       C  0.76038947  0.69312221  0.09748137    -0.15500
C2070       C  0.78005854  0.67009033  0.09057942     0.36800
N2071       N  0.79823023  0.65707352  0.11344852    -0.89800
H2072       H  0.79314546  0.63915494  0.05694426     0.17900
H2073       H  0.72894999  0.72452310  0.08011953     0.17900
N2074       N  0.72500610  0.70728826  0.02310755    -0.88800
H2075       H  0.81141461  0.64033756  0.10471134     0.35300
H2076       H  0.78408487  0.64685369  0.12886154     0.40400
H2077       H  0.73870188  0.71547351  0.00618424     0.40000
H2078       H  0.71331790  0.72539054  0.03124248     0.34900
C2079       C  0.79466476  0.92349984  0.25479847    -0.26900
C2080       C  0.81257382  0.90312107  0.23983149    -0.14900
C2081       C  0.83964201  0.91315355  0.22756578     0.35700
C2082       C  0.84890781  0.94260461  0.23166029    -0.26300
C2083       C  0.83146882  0.96278058  0.24722333    -0.15500
C2084       C  0.80366393  0.95319820  0.25850503     0.36800
N2085       N  0.78460592  0.97257395  0.27477099    -0.89800
H2086       H  0.77366775  0.91620182  0.26412252     0.17900
H2087       H  0.87097980  0.94899351  0.22456831     0.17900
N2088       N  0.85879341  0.89306881  0.21257900    -0.88800
H2089       H  0.76459303  0.97409932  0.26303455     0.35300
H2090       H  0.79329851  0.99409630  0.27561371     0.40400
H2091       H  0.87909277  0.89257505  0.22391655     0.40000
H2092       H  0.86266892  0.90149787  0.19123860     0.34900
C2093       C  0.61104564  0.74437610  0.33922813    -0.26900
C2094       C  0.61268791  0.74992597  0.30884144    -0.14900
C2095       C  0.58632302  0.75470677  0.29242986     0.35700
C2096       C  0.55879485  0.75320078  0.30700485    -0.26300
C2097       C  0.55679790  0.74769457  0.33782442    -0.15500
C2098       C  0.58394631  0.74322096  0.35394575     0.36800
N2099       N  0.58541194  0.73782410  0.38539143    -0.89800
H2100       H  0.63131783  0.74114645  0.35190270     0.17900
H2101       H  0.53917720  0.75699296  0.29378120     0.17900
N2102       N  0.58654592  0.76176333  0.26123095    -0.88800
H2103       H  0.57474133  0.71801192  0.39107390     0.35300
H2104       H  0.57657539  0.75548685  0.39707632     0.40400
H2105       H  0.60805469  0.76246042  0.25274111     0.40000
H2106       H  0.57802352  0.78312566  0.25862853     0.34900
C2107       C  0.64027613  0.62233608  0.22168879    -0.26900
C2108       C  0.67103481  0.62752401  0.22208978    -0.14900
C2109       C  0.69028432  0.60305660  0.22645059     0.35700
C2110       C  0.67814296  0.57454077  0.23172391    -0.26300
C2111       C  0.64734648  0.56983243  0.23305930    -0.15500
C2112       C  0.62831462  0.59398345  0.22703027     0.36800
N2113       N  0.59666552  0.59052171  0.22678083    -0.89800
H2114       H  0.62531526  0.64077888  0.21838387     0.17900
H2115       H  0.69291351  0.55625754  0.23651708     0.17900
N2116       N  0.72204125  0.60645421  0.22766540    -0.88800
H2117       H  0.58965568  0.58399110  0.24788847     0.35300
H2118       H  0.59096026  0.57386702  0.21178236     0.40400
H2119       H  0.72873396  0.62841532  0.22427072     0.40000
H2120       H  0.73086825  0.59428513  0.21020716     0.34900
C2121       C  0.90266039  0.77366992  0.18590300    -0.26900
C2122       C  0.88079904  0.77647610  0.16370329    -0.14900
C2123       C  0.88926824  0.77607819  0.13365967     0.35700
C2124       C  0.91898917  0.77173983  0.12635239    -0.26300
C2125       C  0.94067739  0.76708559  0.14841461    -0.15500
C2126       C  0.93265341  0.76883098  0.17851333     0.36800
N2127       N  0.95446121  0.76376771  0.20131757    -0.89800
H2128       H  0.89604639  0.77367848  0.20899372     0.17900
H2129       H  0.92508330  0.77092593  0.10313691     0.17900
N2130       N  0.86802985  0.77958189  0.11014794    -0.88800
H2131       H  0.94464769  0.76454025  0.22227178     0.35300
H2132       H  0.96975833  0.78130831  0.20043752     0.40400
H2133       H  0.85716597  0.79972258  0.11309068     0.40000
H2134       H  0.85235100  0.76240919  0.11161537     0.34900
C2135       C  0.80481457  0.92215547  0.52851441    -0.26900
C2136       C  0.79160889  0.92375726  0.50029647    -0.14900
C2137       C  0.80470809  0.94253964  0.47872297     0.35700
C2138       C  0.83251733  0.95561457  0.48408385    -0.26300
C2139       C  0.84782356  0.95083326  0.51094381    -0.15500
C2140       C  0.83282807  0.93542952  0.53415097     0.36800
N2141       N  0.84620715  0.93263167  0.56304868    -0.89800
H2142       H  0.79397828  0.90955049  0.54584830     0.17900
H2143       H  0.84258220  0.96868917  0.46645405     0.17900
N2144       N  0.78997725  0.94803744  0.45098060    -0.88800
H2145       H  0.83261479  0.92007652  0.57721380     0.35300
H2146       H  0.84753824  0.95388749  0.57208069     0.40400
H2147       H  0.80401060  0.94144342  0.43388586     0.40000
H2148       H  0.78680815  0.97089574  0.44882785     0.34900
C2149       C  0.66864522  0.92758867  0.47551606    -0.26900
C2150       C  0.68421540  0.91296529  0.49838741    -0.14900
C2151       C  0.66991595  0.90849971  0.52593910     0.35700
C2152       C  0.63966220  0.91568839  0.52889544    -0.26300
C2153       C  0.62338136  0.92678502  0.50463066    -0.15500
C2154       C  0.63844617  0.93421858  0.47817702     0.36800
N2155       N  0.62289989  0.94820234  0.45393173    -0.89800
H2156       H  0.67977724  0.93252843  0.45475998     0.17900
H2157       H  0.62853385  0.91115811  0.54973911     0.17900
N2158       N  0.68542464  0.89560027  0.55057234    -0.88800
H2159       H  0.63709019  0.95186868  0.43594189     0.35300
H2160       H  0.61619984  0.96908979  0.46106269     0.40400
H2161       H  0.67365661  0.87674545  0.55758609     0.40000
H2162       H  0.68520457  0.91079546  0.56795011     0.34900
C2163       C  0.75309360  0.87174889  0.40472327    -0.26900
C2164       C  0.74305225  0.85315800  0.42811347    -0.14900
C2165       C  0.72763589  0.82682073  0.42011578     0.35700
C2166       C  0.72547213  0.81844836  0.38999175    -0.26300
C2167       C  0.73739948  0.83637162  0.36719173    -0.15500
C2168       C  0.75078261  0.86359400  0.37489996     0.36800
N2169       N  0.76116523  0.88376842  0.35238225    -0.89800
H2170       H  0.76196137  0.89363351  0.40919652     0.17900
H2171       H  0.71438751  0.79778309  0.38446483     0.17900
N2172       N  0.71317984  0.80894578  0.44220908    -0.88800
H2173       H  0.78372864  0.88795884  0.35618292     0.35300
H2174       H  0.74981756  0.90374791  0.35458545     0.40400
H2175       H  0.72178910  0.78753197  0.44117283     0.40000
H2176       H  0.69057417  0.80776614  0.43693873     0.34900
C2177       C  0.89353284  0.49552862  0.67086593    -0.26900
C2178       C  0.90500473  0.51210757  0.69455280    -0.14900
C2179       C  0.92520215  0.53534222  0.68831657     0.35700
C2180       C  0.93393898  0.54110134  0.65880115    -0.26300
C2181       C  0.92265442  0.52430763  0.63488081    -0.15500
C2182       C  0.90181731  0.50127932  0.64145026     0.36800
N2183       N  0.88859889  0.48302573  0.61903959    -0.89800
H2184       H  0.87790970  0.47760234  0.67522172     0.17900
H2185       H  0.94967023  0.55897446  0.65470111     0.17900
N2186       N  0.93619077  0.55379114  0.71169163    -0.88800
H2187       H  0.90526683  0.47149483  0.60811139     0.35300
H2188       H  0.87703666  0.49647902  0.60401882     0.40400
H2189       H  0.93022763  0.57567056  0.70686513     0.40000
H2190       H  0.95936410  0.55269015  0.71175966     0.34900
C2191       C  0.93801396  0.49531814  0.81258468    -0.26900
C2192       C  0.90679190  0.49470517  0.80970493    -0.14900
C2193       C  0.88980990  0.49015241  0.83621355     0.35700
C2194       C  0.90401005  0.48793939  0.86373767    -0.26300
C2195       C  0.93489178  0.48888984  0.86636291    -0.15500
C2196       C  0.95208488  0.49213287  0.84032122     0.36800
N2197       N  0.98387273  0.49303175  0.84132215    -0.89800
H2198       H  0.95205783  0.49780962  0.79340863     0.17900
H2199       H  0.89055153  0.48504770  0.88346554     0.17900
N2200       N  0.85803262  0.48735259  0.83649661    -0.88800
H2201       H  0.99148209  0.47276839  0.84965305     0.35300
H2202       H  0.99059071  0.50996436  0.85563053     0.40400
H2203       H  0.85107090  0.46976207  0.82324279     0.40000
H2204       H  0.84812604  0.50703658  0.82962832     0.34900
C2205       C  0.80670541  0.40977837  0.71620917    -0.26900
C2206       C  0.82574873  0.38515166  0.71584012    -0.14900
C2207       C  0.85614251  0.38957282  0.72210198     0.35700
C2208       C  0.86662585  0.41774804  0.73009216    -0.26300
C2209       C  0.84732748  0.44188641  0.73243482    -0.15500
C2210       C  0.81727439  0.43804655  0.72468528     0.36800
N2211       N  0.79718775  0.46232425  0.72697018    -0.89800
H2212       H  0.78326176  0.40676950  0.71151640     0.17900
H2213       H  0.88996785  0.42058028  0.73542905     0.17900
N2214       N  0.87647700  0.36539998  0.72062013    -0.88800
H2215       H  0.78051354  0.45627683  0.74197397     0.35300
H2216       H  0.78729730  0.46563686  0.70618735     0.40400
H2217       H  0.88656865  0.36294076  0.74143242     0.40000
H2218       H  0.89297829  0.37102584  0.70527310     0.34900
C2219       C  0.59867658  0.21330518  0.67958059    -0.26900
C2220       C  0.62072981  0.22922408  0.66380002    -0.14900
C2221       C  0.61157752  0.24800615  0.64030087     0.35700
C2222       C  0.58108964  0.25105031  0.63376624    -0.26300
C2223       C  0.55914693  0.23632726  0.65062357    -0.15500
C2224       C  0.56827963  0.21644535  0.67319760     0.36800
N2225       N  0.54672266  0.19899319  0.68927514    -0.89800
H2226       H  0.60503458  0.19833224  0.69737838     0.17900
H2227       H  0.57469214  0.26544993  0.61565516     0.17900
N2228       N  0.63296288  0.26433765  0.62315725    -0.88800
H2229       H  0.55702243  0.18554192  0.70520805     0.35300
H2230       H  0.53636689  0.18474938  0.67415861     0.40400
H2231       H  0.62822513  0.28690616  0.62494529     0.40000
H2232       H  0.63033486  0.25840717  0.60091755     0.34900
C2233       C  0.73756504  0.29335408  0.56664275    -0.26900
C2234       C  0.75318890  0.30694117  0.59005868    -0.14900
C2235       C  0.77413947  0.32958928  0.58302654     0.35700
C2236       C  0.77656385  0.34015784  0.55367125    -0.26300
C2237       C  0.75832813  0.32876923  0.53118822    -0.15500
C2238       C  0.73993412  0.30403536  0.53737011     0.36800
N2239       N  0.72178776  0.29160750  0.51419116    -0.89800
H2240       H  0.72224474  0.27526480  0.57128295     0.17900
H2241       H  0.79060243  0.35930179  0.54910107     0.17900
N2242       N  0.79215622  0.34288521  0.60564411    -0.88800
H2243       H  0.70880140  0.27405216  0.52239660     0.35300
H2244       H  0.73604982  0.28261709  0.49848921     0.40400
H2245       H  0.78776796  0.36561369  0.60587881     0.40000
H2246       H  0.81441871  0.34020350  0.59986970     0.34900
C2247       C  0.91248218  0.28469301  0.80281187    -0.26900
C2248       C  0.88891673  0.26455400  0.80721502    -0.14900
C2249       C  0.89297468  0.24066637  0.82723191     0.35700
C2250       C  0.91939827  0.23825466  0.84336922    -0.26300
C2251       C  0.94266729  0.25922659  0.84043988    -0.15500
C2252       C  0.93913886  0.28220043  0.81906281     0.36800
N2253       N  0.96244692  0.30348448  0.81414917    -0.89800
H2254       H  0.91005990  0.30289650  0.78715211     0.17900
H2255       H  0.92063061  0.21956290  0.85820044     0.17900
N2256       N  0.87037685  0.21837671  0.83127651    -0.88800
H2257       H  0.95408742  0.32457819  0.81835779     0.35300
H2258       H  0.96840333  0.30270812  0.79177729     0.40400
H2259       H  0.86434612  0.21795480  0.85366272     0.40000
H2260       H  0.87936867  0.19777649  0.82609974     0.34900
C2261       C  0.78941446  0.19046687  0.89281471    -0.26900
C2262       C  0.76686384  0.18610358  0.87162935    -0.14900
C2263       C  0.73981843  0.17303692  0.88064030     0.35700
C2264       C  0.73687606  0.16231326  0.90978819    -0.26300
C2265       C  0.76060993  0.16343105  0.93033919    -0.15500
C2266       C  0.78636503  0.17991678  0.92217820     0.36800
N2267       N  0.80957493  0.18549571  0.94349154    -0.89800
H2268       H  0.80969266  0.20186470  0.88634972     0.17900
H2269       H  0.71543900  0.15371449  0.91618681     0.17900
N2270       N  0.71514247  0.17116210  0.86032220    -0.88800
H2271       H  0.82718695  0.19720478  0.93371851     0.35300
H2272       H  0.80094721  0.19924990  0.95980502     0.40400
H2273       H  0.70852024  0.19281293  0.85532391     0.40000
H2274       H  0.69694000  0.16056438  0.87025184     0.34900
C2275       C  0.56108356  0.97699450  0.84878870    -0.26900
C2276       C  0.58398338  0.97386056  0.86991337    -0.14900
C2277       C  0.61369989  0.97362361  0.86027250     0.35700
C2278       C  0.62005955  0.97851523  0.83029953    -0.26300
C2279       C  0.59737238  0.98405449  0.80948566    -0.15500
C2280       C  0.56753666  0.98232721  0.81870032     0.36800
N2281       N  0.54359499  0.98749904  0.79834938    -0.89800
H2282       H  0.53815925  0.97710019  0.85598765     0.17900
H2283       H  0.64306607  0.97929256  0.82333847     0.17900
N2284       N  0.63783087  0.96873668  0.88049552    -0.88800
H2285       H  0.54488083  0.97190379  0.78139936     0.35300
H2286       H  0.54641192  0.00861334  0.78893845     0.40400
H2287       H  0.63423002  0.94842562  0.89133227     0.40000
H2288       H  0.63798518  0.98552670  0.89631423     0.34900
C2289       C  0.58840317  0.97003728  0.68036410    -0.26900
C2290       C  0.58013695  0.99324936  0.69894168    -0.14900
C2291       C  0.56024599  0.01494630  0.68802023     0.35700
C2292       C  0.55126447  0.01431687  0.65819559    -0.26300
C2293       C  0.56115875  0.99228147  0.63880940    -0.15500
C2294       C  0.57924285  0.96934183  0.65050942     0.36800
N2295       N  0.58948307  0.94589988  0.63202769    -0.89800
H2296       H  0.60394877  0.95355623  0.68837147     0.17900
H2297       H  0.53673091  0.03163784  0.65009653     0.17900
N2298       N  0.54968715  0.03860334  0.70627803    -0.88800
H2299       H  0.58243775  0.92573140  0.64135435     0.35300
H2300       H  0.61269917  0.94631373  0.63221638     0.40400
H2301       H  0.55667701  0.03599634  0.72826329     0.40000
H2302       H  0.52652489  0.03697425  0.70678481     0.34900
C2303       C  0.64263610  0.07928177  0.74314541    -0.26900
C2304       C  0.65865596  0.05315078  0.74926751    -0.14900
C2305       C  0.68826988  0.05644189  0.75962411     0.35700
C2306       C  0.70173834  0.08496856  0.75997205    -0.26300
C2307       C  0.68602592  0.11062898  0.75152201    -0.15500
C2308       C  0.65577150  0.10735782  0.74345956     0.36800
N2309       N  0.63714421  0.13208462  0.73645292    -0.89800
H2310       H  0.61908679  0.07817176  0.73829655     0.17900
H2311       H  0.72458881  0.08718447  0.76727851     0.17900
N2312       N  0.70424782  0.03132653  0.77093256    -0.88800
H2313       H  0.64464326  0.14232749  0.71696254     0.35300
H2314       H  0.63788117  0.14708438  0.75400062     0.40400
H2315       H  0.69326047  0.02379402  0.78999620     0.40000
H2316       H  0.72564060  0.03757030  0.77764245     0.34900
C2317       C  0.84384807  0.56927605  0.72420009    -0.26900
C2318       C  0.83397550  0.55032417  0.74699480    -0.14900
C2319       C  0.81151126  0.56009945  0.76637756     0.35700
C2320       C  0.80068000  0.58904518  0.76332957    -0.26300
C2321       C  0.81145527  0.60862046  0.74128774    -0.15500
C2322       C  0.83308543  0.59827356  0.72131193     0.36800
N2323       N  0.84533632  0.61745914  0.69890950    -0.89800
H2324       H  0.86143957  0.56222509  0.70961268     0.17900
H2325       H  0.78379785  0.59630028  0.77862809     0.17900
N2326       N  0.79955319  0.54153473  0.78965128    -0.88800
H2327       H  0.84180460  0.60757284  0.67828056     0.35300
H2328       H  0.86825124  0.61910662  0.70245558     0.40400
H2329       H  0.80802478  0.52010290  0.78881195     0.40000
H2330       H  0.77674727  0.53925379  0.78576270     0.34900
C2331       C  0.71737696  0.81480052  0.58199226    -0.26900
C2332       C  0.74061660  0.82083156  0.60208352    -0.14900
C2333       C  0.76482926  0.83833231  0.59247438     0.35700
C2334       C  0.76541259  0.84960086  0.56329886    -0.26300
C2335       C  0.74218402  0.84388959  0.54327091    -0.15500
C2336       C  0.71814436  0.82574502  0.55265775     0.36800
N2337       N  0.69417623  0.81828094  0.53299215    -0.89800
H2338       H  0.69872169  0.80114917  0.58901607     0.17900
H2339       H  0.78427654  0.86273580  0.55625080     0.17900
N2340       N  0.78841985  0.84558348  0.61263361    -0.88800
H2341       H  0.70275567  0.80638160  0.51524846     0.35300
H2342       H  0.68499010  0.83781424  0.52454702     0.40400
H2343       H  0.78969452  0.86868311  0.61423243     0.40000
H2344       H  0.80830689  0.83821315  0.60353095     0.34900
C2345       C  0.58265876  0.72778907  0.80224374    -0.26900
C2346       C  0.60424659  0.74596597  0.81559624    -0.14900
C2347       C  0.59666249  0.76218125  0.84109217     0.35700
C2348       C  0.56764605  0.76011905  0.85216700    -0.26300
C2349       C  0.54560610  0.74235194  0.83866938    -0.15500
C2350       C  0.55363952  0.72571489  0.81336506     0.36800
N2351       N  0.53371533  0.70507496  0.79951014    -0.89800
H2352       H  0.58855426  0.71468792  0.78313225     0.17900
H2353       H  0.56269570  0.77216142  0.87211237     0.17900
N2354       N  0.61782690  0.78031345  0.85684733    -0.88800
H2355       H  0.51669952  0.71663320  0.78892303     0.35300
H2356       H  0.52485387  0.69085673  0.81571146     0.40400
H2357       H  0.63869168  0.78025108  0.84691264     0.40000
H2358       H  0.62054533  0.77102316  0.87802580     0.34900
C2359       C  0.64448878  0.88553933  0.75762245    -0.26900
C2360       C  0.66302408  0.87705871  0.73421399    -0.14900
C2361       C  0.67389558  0.89947266  0.71464168     0.35700
C2362       C  0.66608616  0.92942334  0.71921453    -0.26300
C2363       C  0.64776910  0.93759199  0.74286711    -0.15500
C2364       C  0.63695271  0.91520886  0.76213925     0.36800
N2365       N  0.61880407  0.92245723  0.78698410    -0.89800
H2366       H  0.63586715  0.86903193  0.77302361     0.17900
H2367       H  0.67409170  0.94645505  0.70406157     0.17900
N2368       N  0.69293895  0.89201018  0.69037880    -0.88800
H2369       H  0.62945553  0.91507777  0.80631222     0.35300
H2370       H  0.59868101  0.91087177  0.78502883     0.40400
H2371       H  0.71309484  0.88489284  0.69942409     0.40000
H2372       H  0.69786587  0.91081826  0.67751398     0.34900
C2373       C  0.71551361  0.67953877  0.89153953    -0.26900
C2374       C  0.73787826  0.67077532  0.87186779    -0.14900
C2375       C  0.76314146  0.65613907  0.88374236     0.35700
C2376       C  0.76487165  0.64965388  0.91425170    -0.26300
C2377       C  0.74185093  0.65714378  0.93337992    -0.15500
C2378       C  0.71727391  0.67294098  0.92208117     0.36800
N2379       N  0.69384673  0.68156775  0.94168279    -0.89800
H2380       H  0.69636567  0.69133053  0.88309898     0.17900
H2381       H  0.78359052  0.63716687  0.92271698     0.17900
N2382       N  0.78696515  0.64718296  0.86498393    -0.88800
H2383       H  0.67727130  0.69286649  0.92998979     0.35300
H2384       H  0.70288581  0.69655137  0.95689740     0.40400
H2385       H  0.78930009  0.62420883  0.86709229     0.40000
H2386       H  0.80653252  0.65723105  0.87262876     0.34900
C2387       C  0.88538453  0.76698701  0.67883747    -0.26900
C2388       C  0.87100851  0.74109181  0.66921918    -0.14900
C2389       C  0.88800791  0.71833045  0.65651157     0.35700
C2390       C  0.91840358  0.72363422  0.65051981    -0.26300
C2391       C  0.93172791  0.75116843  0.65682765    -0.15500
C2392       C  0.91565865  0.77189367  0.67353613     0.36800
N2393       N  0.93005543  0.79835996  0.68420091    -0.89800
H2394       H  0.87277539  0.78369555  0.69030567     0.17900
H2395       H  0.93122091  0.70687113  0.63961219     0.17900
N2396       N  0.87409768  0.69084509  0.64806940    -0.88800
H2397       H  0.91517880  0.81134392  0.69604571     0.35300
H2398       H  0.94659964  0.79183254  0.69917359     0.40400
H2399       H  0.86775754  0.67974165  0.66752491     0.40000
H2400       H  0.88939239  0.67717253  0.63760579     0.34900
loop_ 
_geom_bond_atom_site_label_1 
_geom_bond_atom_site_label_2 
_geom_bond_distance 
_geom_bond_site_symmetry_2 
_ccdc_geom_bond_type 
O1           Mg3   2.133       .  S
O1           Mg9   2.144       .  S
O1           C36   1.237       .  S
C2           O15   1.240       .  S
C2           O39   1.274       .  A
C2           H41   1.081       .  S
Mg3          O32   2.151       .  S
Mg3          O47   2.332       .  S
Mg3          O43   2.276       .  S
Mg3          O14   2.295       .  S
O4          Mg46   2.138       .  S
O4          Mg29   2.135       .  S
O4           C25   1.237       .  S
O5           C36   1.271       .  A
O5          Mg29   2.298       .  S
C6            O8   1.272       .  A
C6           O20   1.276       .  A
C6         C2321   1.492       .  S
O7           C35   1.273       .  A
O7           Mg9   2.301       .  S
O8          Mg40   2.267       .  S
Mg9          O15   2.154       .  S
Mg9          O23   2.287       .  S
Mg9          O11   2.346       .  S
C10          O48   1.270       .  A
C10          O16   1.281       .  A
C10        C2374   1.496       .  S
O11          C18   1.280       .  A
H12          C25   1.081       .  S
C13          O27   1.240       .  S
C13          O28   1.274       .  A
C13          H38   1.081       .  S
O14          C37   1.270       .  A
O15         Mg29   2.144       .  S
O16         Mg46   2.344       .  S
C17          O30   1.272       .  A
C17          O22   1.278       .  A
C17        C2346   1.478       .  S
C18          O45   1.275       .  A
C18        C2360   1.500       .  S
Mg19         O26   2.119       .  S
Mg19         O27   2.139       .  S
Mg19         O20   2.311       .  S
Mg19         O21   2.303       .  S
Mg19         O48   2.245       .  S
O21          C25   1.272       .  A
O22         Mg29   2.333       .  S
O23          C42   1.276       .  A
O24          C44   1.275       .  A
O24         Mg40   2.311       .  S
O26         Mg40   2.137       .  S
O26          C37   1.237       .  S
O27         Mg46   2.139       .  S
O28         Mg40   2.305       .  S
Mg29         O45   2.263       .  S
O30         Mg46   2.267       .  S
H31          C36   1.081       .  S
O32         Mg40   2.146       .  S
O32          C35   1.239       .  S
H33          C35   1.081       .  S
H34          C37   1.081       .  S
O39         Mg46   2.309       .  S
C42          O47   1.280       .  A
C42        C2332   1.486       .  S
O43          C44   1.277       .  A
C44        C2388   1.482       .  S
C49          C50   1.525       .  S
C49          C55   1.530       .  S
C49          C53   1.560   1_545  S
C49        C2304   1.542       .  S
C50          H57   1.087       .  S
C50          C51   1.361   1_545  D
C51          C52   1.545       .  S
C51        C2279   1.486       .  S
C52          C56   1.544       .  S
C52          C54   1.539       .  S
C52          H58   1.110       .  S
C53          H59   1.083       .  S
C53          C54   1.381       .  D
C54        C2363   1.496       .  S
C55          H60   1.087       .  S
C55          C56   1.356   1_545  D
C56        C2290   1.482       .  S
O61         Mg63   2.131       .  S
O61         Mg69   2.156       .  S
O61          C96   1.238       .  S
C62          O75   1.240       .  S
C62          O99   1.274       .  A
C62         H101   1.081       .  S
Mg63         O92   2.154       .  S
Mg63        O107   2.264       .  S
Mg63        O103   2.257       .  S
Mg63         O74   2.289       .  S
O64        Mg106   2.137       .  S
O64         Mg89   2.142       .  S
O64          C85   1.238       .  S
O65          C96   1.271       .  A
O65         Mg89   2.297       .  S
C66          O68   1.275       .  A
C66          O80   1.276       .  A
C66        C2307   1.496       .  S
O67          C95   1.272       .  A
O67         Mg69   2.302       .  S
O68        Mg100   2.291       .  S
Mg69         O75   2.132       .  S
Mg69         O83   2.288       .  S
Mg69         O71   2.311       .  S
C70         O108   1.272       .  A
C70          O76   1.283       .  A
C70        C2220   1.501       .  S
O71          C78   1.277       .  A
H72          C85   1.081       .  S
C73          O87   1.238       .  S
C73          O88   1.272       .  A
C73          H98   1.081       .  S
O74          C97   1.269       .  A
O75         Mg89   2.147       .  S
O76        Mg106   2.371       .  S
C77          O90   1.277       .  A
C77          O82   1.276       .  A
C77        C2234   1.496       .  S
C78         O105   1.275       .  A
C78        C2206   1.487       .  S
Mg79         O86   2.111       .  S
Mg79         O87   2.131       .  S
Mg79         O80   2.310       .  S
Mg79         O81   2.303       .  S
Mg79        O108   2.240       .  S
O81          C85   1.272       .  A
O82         Mg89   2.314       .  S
O83         C102   1.274       .  A
O84         C104   1.278       .  A
O84        Mg100   2.314       .  S
O86        Mg100   2.142       .  S
O86          C97   1.236       .  S
O87        Mg106   2.145       .  S
O88        Mg100   2.303       .  S
Mg89        O105   2.288       .  S
O90        Mg106   2.277       .  S
H91          C96   1.081       .  S
O92        Mg100   2.138       .  S
O92          C95   1.238       .  S
H93          C95   1.081       .  S
H94          C97   1.081       .  S
O99        Mg106   2.309       .  S
C102        O107   1.271       .  A
C102       C2248   1.487       .  S
O103        C104   1.271       .  A
C104       C2262   1.483       .  S
C109        C110   1.528       .  S
C109        C115   1.529       .  S
C109        C113   1.562       .  S
C109       C2192   1.543       .  S
C110        H117   1.087       .  S
C110        C111   1.360       .  D
C111        C112   1.541       .  S
C111       C2209   1.487       .  S
C112        C116   1.540       .  S
C112        C114   1.538       .  S
C112        H118   1.110       .  S
C113        H119   1.082       .  S
C113        C114   1.380       .  D
C114       C2178   1.495       .  S
C115        H120   1.087       .  S
C115        C116   1.360       .  D
C116       C2318   1.482       .  S
C121        C122   1.535       .  S
C121        C127   1.523       .  S
C121        C125   1.549       .  S
C121       C2164   1.544       .  S
C122        H129   1.085       .  S
C122        C123   1.363       .  D
C123        C124   1.548       .  S
C123       C2136   1.498       .  S
C124        C128   1.549       .  S
C124        C126   1.547       .  S
C124        H130   1.109       .  S
C125        H131   1.084       .  S
C125        C126   1.376       .  D
C126       C2335   1.491       .  S
C127        H132   1.087       .  S
C127        C128   1.365       .  D
C128       C2150   1.497       .  S
O133       Mg135   2.157       .  S
O133       Mg141   2.140       .  S
O133        C168   1.240       .  S
C134        O147   1.239       .  S
C134        O171   1.274       .  A
C134        H173   1.081       .  S
Mg135       O164   2.147       .  S
Mg135       O179   2.364       .  S
Mg135       O175   2.294       .  S
Mg135       O146   2.297       .  S
O136       Mg178   2.130       .  S
O136       Mg161   2.140       .  S
O136        C157   1.240       .  S
O137        C168   1.275       .  A
O137       Mg161   2.317       .  S
C138        O140   1.272       .  A
C138        O152   1.277       .  A
C138       C2122   1.475       .  S
O139        C167   1.270       .  A
O139       Mg141   2.297       .  S
O140       Mg172   2.260       .  S
Mg141       O147   2.160       .  S
Mg141       O155   2.276       .  S
Mg141       O143   2.324       .  S
C142        O180   1.273       .  A
C142        O148   1.277       .  A
C142       C2080   1.488       .  S
O143        C150   1.276       .  A
H144        C157   1.081       .  S
C145        O159   1.238       .  S
C145        O160   1.271       .  A
C145        H170   1.081       .  S
O146        C169   1.272       .  A
O147       Mg161   2.138       .  S
O148       Mg178   2.324       .  S
C149        O162   1.271       .  A
C149        O154   1.279       .  A
C149       C2167   1.493       .  S
C150        O177   1.270       .  A
C150       C2094   1.469       .  S
Mg151       O158   2.139       .  S
Mg151       O159   2.133       .  S
Mg151       O152   2.330       .  S
Mg151       O153   2.310       .  S
Mg151       O180   2.271       .  S
O153        C157   1.274       .  A
O154       Mg161   2.357       .  S
O155        C174   1.274       .  A
O156        C176   1.273       .  A
O156       Mg172   2.295       .  S
O158       Mg172   2.144       .  S
O158        C169   1.239       .  S
O159       Mg178   2.120       .  S
O160       Mg172   2.291       .  S
Mg161       O177   2.245       .  S
O162       Mg178   2.250       .  S
H163        C168   1.081       .  S
O164       Mg172   2.140       .  S
O164        C167   1.236       .  S
H165        C167   1.081       .  S
H166        C169   1.081       .  S
O171       Mg178   2.315       .  S
C174        O179   1.282       .  A
C174       C2108   1.487       .  S
O175        C176   1.277       .  A
C176       C2069   1.475       .  S
C181        C182   1.527       .  S
C181        C187   1.522   1_556  S
C181        C185   1.550       .  S
C181       C2055   1.528   1_556  S
C182        H189   1.087       .  S
C182        C183   1.359       .  D
C183        C184   1.549       .  S
C183       C2377   1.484       .  S
C184        C188   1.545   1_556  S
C184        C186   1.545       .  S
C184        H190   1.110       .  S
C185        H191   1.082       .  S
C185        C186   1.376       .  D
C186       C2038   1.495       .  S
C187        H192   1.088       .  S
C187        C188   1.356       .  D
C188       C2066   1.476       .  S
C193        C194   1.521       .  S
C193        C199   1.522       .  S
C193        C197   1.561       .  S
C193       C2097   1.538       .  S
C194        H201   1.086       .  S
C194        C195   1.360       .  D
C195        C196   1.553       .  S
C195       C2010   1.495       .  S
C196        C200   1.548       .  S
C196        C198   1.541       .  S
C196        H202   1.108       .  S
C197        H203   1.082       .  S
C197        C198   1.380       .  D
C198       C1999   1.496       .  S
C199        H204   1.088       .  S
C199        C200   1.358       .  D
C200       C2024   1.487       .  S
C205        C206   1.524       .  S
C205        C211   1.525       .  S
C205        C209   1.558       .  S
C205       C1940   1.533       .  S
C206        H213   1.087       .  S
C206        C207   1.361       .  D
C207        C208   1.550   1_565  S
C207       C1971   1.486   1_565  S
C208        C212   1.545   1_545  S
C208        C210   1.536       .  S
C208        H214   1.111       .  S
C209        H215   1.082       .  S
C209        C210   1.375   1_565  D
C210       C1957   1.491       .  S
C211        H216   1.087       .  S
C211        C212   1.362       .  D
C212       C1985   1.490   1_565  S
C217        C218   1.536       .  S
C217        C223   1.532       .  S
C217        C221   1.549       .  S
C217       C2265   1.541       .  S
C218        H225   1.082       .  S
C218        C219   1.355       .  D
C219        C220   1.547   1_556  S
C219       C1915   1.483       .  S
C220        C224   1.545   1_554  S
C220        C222   1.541       .  S
C220        H226   1.108       .  S
C221        H227   1.085       .  S
C221        C222   1.378   1_556  D
C222       C1898   1.501       .  S
C223        H228   1.086       .  S
C223        C224   1.362       .  D
C224       C1929   1.484   1_556  S
C229        C230   1.524       .  S
C229        C235   1.536       .  S
C229        C233   1.553       .  S
C229       C1845   1.548       .  S
C230        H237   1.087       .  S
C230        C231   1.361       .  D
C231        C232   1.544       .  S
C231       C1884   1.489       .  S
C232        C236   1.546       .  S
C232        C234   1.543       .  S
C232        H238   1.110       .  S
C233        H239   1.082       .  S
C233        C234   1.379       .  D
C234       C1859   1.492       .  S
C235        H240   1.086       .  S
C235        C236   1.359       .  D
C236       C1870   1.488       .  S
C241        C242   1.532       .  S
C241        C247   1.526       .  S
C241        C245   1.552       .  S
C241       C1817   1.539       .  S
C242        H249   1.086       .  S
C242        C243   1.356       .  D
C243        C244   1.542       .  S
C243       C2237   1.479       .  S
C244        C248   1.543       .  S
C244        C246   1.541       .  S
C244        H250   1.111       .  S
C245        H251   1.085       .  S
C245        C246   1.377       .  D
C246       C1828   1.491       .  S
C247        H252   1.087       .  S
C247        C248   1.362       .  D
C248       C1800   1.479       .  S
C253        C254   1.530       .  S
C253        C259   1.542       .  S
C253        C257   1.547       .  S
C253       C1775   1.548       .  S
C254        H261   1.087       .  S
C254        C255   1.362       .  D
C255        C256   1.547       .  S
C255       C2111   1.492       .  S
C256        C260   1.545       .  S
C256        C258   1.544       .  S
C256        H262   1.110       .  S
C257        H263   1.078       .  S
C257        C258   1.374       .  D
C258       C1761   1.491       .  S
C259        H264   1.084       .  S
C259        C260   1.362       .  D
C260       C1789   1.497       .  S
C265        C266   1.516       .  S
C265        C271   1.525       .  S
C265        C269   1.559       .  S
C265       C1716   1.531       .  S
C266        H273   1.086       .  S
C266        C267   1.356       .  D
C267        C268   1.548       .  S
C267       C1705   1.478       .  S
C268        C272   1.546       .  S
C268        C270   1.540       .  S
C268        H274   1.111       .  S
C269        H275   1.083       .  S
C269        C270   1.380       .  D
C270       C1730   1.487       .  S
C271        H276   1.088       .  S
C271        C272   1.355       .  D
C272       C1744   1.486       .  S
C277        C278   1.534   1_455  S
C277        C283   1.536       .  S
C277        C281   1.545       .  S
C277       C1674   1.539       .  S
C278        H285   1.086       .  S
C278        C279   1.363       .  D
C279        C280   1.543       .  S
C279       C2125   1.486       .  S
C280        C284   1.538   1_655  S
C280        C282   1.538   1_655  S
C280        H286   1.109       .  S
C281        H287   1.085       .  S
C281        C282   1.374       .  D
C282       C1688   1.486       .  S
C283        H288   1.080       .  S
C283        C284   1.357       .  D
C284       C1660   1.479       .  S
O289       Mg291   2.122       .  S
O289       Mg297   2.143       .  S
O289        C324   1.239       .  S
C290        O303   1.238       .  S
C290        O327   1.272       .  A
C290        H329   1.081       .  S
Mg291       O320   2.140       .  S
Mg291       O335   2.338       .  S
Mg291       O331   2.245       .  S
Mg291       O302   2.307       .  S
O292       Mg334   2.140       .  S
O292       Mg317   2.128       .  S
O292        C313   1.239       .  S
O293        C324   1.272       .  A
O293       Mg317   2.293       .  S
C294        O296   1.276       .  A
C294        O308   1.279       .  A
C294       C1618   1.503       .  S
O295        C323   1.271       .  A
O295       Mg297   2.297       .  S
O296       Mg328   2.284       .  S
Mg297       O303   2.127       .  S
Mg297       O311   2.269       .  S
Mg297       O299   2.295       .  S
C298        O336   1.275       .  A
C298        O304   1.276       .  A
C298       C1632   1.495       .  S
O299        C306   1.275       .  A
H300        C313   1.081       .  S
C301        O315   1.239       .  S
C301        O316   1.274       .  A
C301        H326   1.081       .  S
O302        C325   1.273       .  A
O303       Mg317   2.151       .  S
O304       Mg334   2.308       .  S
C305        O318   1.275       .  A
C305        O310   1.279       .  A
C305       C1996   1.495       .  S
C306        O333   1.273       .  A
C306       C1747   1.477       .  S
Mg307       O314   2.135       .  S
Mg307       O315   2.143       .  S
Mg307       O308   2.339       .  S
Mg307       O309   2.302       .  S
Mg307       O336   2.271       .  S
O309        C313   1.273       .  A
O310       Mg317   2.318       .  S
O311        C330   1.273       .  A
O312        C332   1.280       .  A
O312       Mg328   2.331       .  S
O314       Mg328   2.131       .  S
O314        C325   1.239       .  S
O315       Mg334   2.140       .  S
O316       Mg328   2.307       .  S
Mg317       O333   2.273       .  S
O318       Mg334   2.286       .  S
H319        C324   1.081       .  S
O320       Mg328   2.140       .  S
O320        C323   1.238       .  S
H321        C323   1.081       .  S
H322        C325   1.081       .  S
O327       Mg334   2.296       .  S
C330        O335   1.278       .  A
C330       C1646   1.481       .  S
O331        C332   1.272       .  A
C332       C1663   1.489       .  S
C337        C338   1.520       .  S
C337        C343   1.526       .  S
C337        C341   1.557   1_556  S
C337       C1576   1.536       .  S
C338        H345   1.088       .  S
C338        C339   1.360   1_556  D
C339        C340   1.552       .  S
C339       C1590   1.496       .  S
C340        C344   1.552       .  S
C340        C342   1.543       .  S
C340        H346   1.108       .  S
C341        H347   1.082       .  S
C341        C342   1.381       .  D
C342       C1621   1.502       .  S
C343        H348   1.087       .  S
C343        C344   1.362   1_556  D
C344       C1607   1.493       .  S
C349        C350   1.533       .  S
C349        C355   1.527       .  S
C349        C353   1.552       .  S
C349       C1562   1.547       .  S
C350        H357   1.087       .  S
C350        C351   1.359       .  D
C351        C352   1.549       .  S
C351       C1548   1.488       .  S
C352        C356   1.549       .  S
C352        C354   1.545       .  S
C352        H358   1.110       .  S
C353        H359   1.075       .  S
C353        C354   1.380       .  D
C354       C2223   1.500       .  S
C355        H360   1.088       .  S
C355        C356   1.359       .  D
C356       C1534   1.490       .  S
O361       Mg363   2.133       .  S
O361       Mg369   2.142       .  S
O361        C396   1.240       .  S
C362        O375   1.239       .  S
C362        O399   1.273       .  A
C362        H401   1.081       .  S
Mg363       O392   2.140       .  S
Mg363       O407   2.334       .  S
Mg363       O403   2.285       .  S
Mg363       O374   2.307       .  S
O364       Mg406   2.134       .  S
O364       Mg389   2.129       .  S
O364        C385   1.238       .  S
O365        C396   1.274       .  A
O365       Mg389   2.307       .  S
C366        O368   1.270       .  A
C366        O380   1.277       .  A
C366       C1523   1.479       .  S
O367        C395   1.270       .  A
O367       Mg369   2.295       .  S
O368       Mg400   2.242       .  S
Mg369       O375   2.149       .  S
Mg369       O383   2.285       .  S
Mg369       O371   2.310       .  S
C370        O408   1.276       .  A
C370        O376   1.278       .  A
C370       C1954   1.499       .  S
O371        C378   1.277       .  A
H372        C385   1.081       .  S
C373        O387   1.237       .  S
C373        O388   1.270       .  A
C373        H398   1.081       .  S
O374        C397   1.274       .  A
O375       Mg389   2.139       .  S
O376       Mg406   2.324       .  S
C377        O390   1.272       .  A
C377        O382   1.279       .  A
C377       C1495   1.497       .  S
C378        O405   1.270       .  A
C378       C1506   1.487       .  S
Mg379       O386   2.149       .  S
Mg379       O387   2.141       .  S
Mg379       O380   2.314       .  S
Mg379       O381   2.299       .  S
Mg379       O408   2.288       .  S
O381        C385   1.271       .  A
O382       Mg389   2.337       .  S
O383        C402   1.275       .  A
O384        C404   1.274       .  A
O384       Mg400   2.289       .  S
O386       Mg400   2.151       .  S
O386        C397   1.240       .  S
O387       Mg406   2.116       .  S
O388       Mg400   2.291       .  S
Mg389       O405   2.247       .  S
O390       Mg406   2.258       .  S
H391        C396   1.081       .  S
O392       Mg400   2.117       .  S
O392        C395   1.237       .  S
H393        C395   1.081       .  S
H394        C397   1.081       .  S
O399       Mg406   2.307       .  S
C402        O407   1.280       .  A
C402       C1856   1.497       .  S
O403        C404   1.274       .  A
C404       C1565   1.486       .  S
C409        C410   1.534       .  S
C409        C415   1.541       .  S
C409        C413   1.544       .  S
C409       C2251   1.540       .  S
C410        H417   1.087       .  S
C410        C411   1.365       .  D
C411        C412   1.540   1_655  S
C411       C1467   1.483   1_655  S
C412        C416   1.537   1_455  S
C412        C414   1.541       .  S
C412        H418   1.109       .  S
C413        H419   1.086   1_655  S
C413        C414   1.372   1_655  D
C414       C1492   1.489       .  S
C415        H420   1.079       .  S
C415        C416   1.359       .  D
C416       C1478   1.481   1_655  S
O421       Mg423   2.136       .  S
O421       Mg429   2.142       .  S
O421        C456   1.237       .  S
C422        O435   1.238       .  S
C422        O459   1.272       .  A
C422        H461   1.081       .  S
Mg423       O452   2.140       .  S
Mg423       O467   2.320       .  S
Mg423       O463   2.261       .  S
Mg423       O434   2.302       .  S
O424       Mg466   2.130       .  S
O424       Mg449   2.127       .  S
O424        C445   1.238       .  S
O425        C456   1.271       .  A
O425       Mg449   2.302       .  S
C426        O428   1.274       .  A
C426        O440   1.275       .  A
C426       C1786   1.499       .  S
O427        C455   1.275       .  A
O427       Mg429   2.306       .  S
O428       Mg460   2.274       .  S
Mg429       O435   2.151       .  S
Mg429       O443   2.280       .  S
Mg429       O431   2.325       .  S
C430        O468   1.271       .  A
C430        O436   1.273       .  A
C430       C1803   1.473       .  S
O431        C438   1.277       .  A
H432        C445   1.081       .  S
C433        O447   1.239       .  S
C433        O448   1.273       .  A
C433        H458   1.081       .  S
O434        C457   1.271       .  A
O435       Mg449   2.150       .  S
O436       Mg466   2.308       .  S
C437        O450   1.268       .  A
C437        O442   1.283       .  A
C437       C1436   1.499       .  S
C438        O465   1.275       .  A
C438       C1425   1.474       .  S
Mg439       O446   2.127       .  S
Mg439       O447   2.139       .  S
Mg439       O440   2.312       .  S
Mg439       O441   2.302       .  S
Mg439       O468   2.260       .  S
O441        C445   1.272       .  A
O442       Mg449   2.373       .  S
O443        C462   1.273       .  A
O444        C464   1.276       .  A
O444       Mg460   2.330       .  S
O446       Mg460   2.137       .  S
O446        C457   1.237       .  S
O447       Mg466   2.140       .  S
O448       Mg460   2.305       .  S
Mg449       O465   2.258       .  S
O450       Mg466   2.234       .  S
H451        C456   1.081       .  S
O452       Mg460   2.149       .  S
O452        C455   1.241       .  S
H453        C455   1.081       .  S
H454        C457   1.081       .  S
O459       Mg466   2.298       .  S
C462        O467   1.276       .  A
C462       C1901   1.478       .  S
O463        C464   1.273       .  A
C464       C1450   1.476       .  S
C469        C470   1.540   1_545  S
C469        C475   1.524       .  S
C469        C473   1.557       .  S
C469       C1408   1.547       .  S
C470        H477   1.086       .  S
C470        C471   1.360       .  D
C471        C472   1.544   1_565  S
C471       C2083   1.484       .  S
C472        C476   1.541       .  S
C472        C474   1.542       .  S
C472        H478   1.109       .  S
C473        H479   1.080       .  S
C473        C474   1.382       .  D
C474       C1394   1.504       .  S
C475        H480   1.087       .  S
C475        C476   1.358       .  D
C476       C1422   1.487       .  S
C481        C482   1.528       .  S
C481        C487   1.528       .  S
C481        C485   1.556       .  S
C481       C1383   1.531       .  S
C482        H489   1.087       .  S
C482        C483   1.360       .  D
C483        C484   1.544   1_455  S
C483       C1369   1.481       .  S
C484        C488   1.545   1_655  S
C484        C486   1.540       .  S
C484        H490   1.109       .  S
C485        H491   1.081       .  S
C485        C486   1.374   1_455  D
C486       C1439   1.494       .  S
C487        H492   1.087       .  S
C487        C488   1.360       .  D
C488       C1355   1.487   1_455  S
O493       Mg495   2.133       .  S
O493       Mg501   2.148       .  S
O493        C528   1.237       .  S
C494        O507   1.238       .  S
C494        O531   1.271       .  A
C494        H533   1.081       .  S
Mg495       O524   2.162       .  S
Mg495       O539   2.294       .  S
Mg495       O535   2.268       .  S
Mg495       O506   2.287       .  S
O496       Mg538   2.145       .  S
O496       Mg521   2.123       .  S
O496        C517   1.237       .  S
O497        C528   1.271       .  A
O497       Mg521   2.297       .  S
C498        O500   1.275       .  A
C498        O512   1.273       .  A
C498       C1282   1.493       .  S
O499        C527   1.273       .  A
O499       Mg501   2.301       .  S
O500       Mg532   2.294       .  S
Mg501       O507   2.142       .  S
Mg501       O515   2.287       .  S
Mg501       O503   2.320       .  S
C502        O540   1.269       .  A
C502        O508   1.277       .  A
C502       C1380   1.478       .  S
O503        C510   1.278       .  A
H504        C517   1.081       .  S
C505        O519   1.239       .  S
C505        O520   1.273       .  A
C505        H530   1.081       .  S
O506        C529   1.268       .  A
O507       Mg521   2.154       .  S
O508       Mg538   2.313       .  S
C509        O522   1.276       .  A
C509        O514   1.278       .  A
C509       C1299   1.501       .  S
C510        O537   1.274       .  A
C510       C1324   1.491       .  S
Mg511       O518   2.114       .  S
Mg511       O519   2.152       .  S
Mg511       O512   2.279       .  S
Mg511       O513   2.290       .  S
Mg511       O540   2.241       .  S
O513        C517   1.270       .  A
O514       Mg521   2.319       .  S
O515        C534   1.275       .  A
O516        C536   1.277       .  A
O516       Mg532   2.307       .  S
O518       Mg532   2.146       .  S
O518        C529   1.235       .  S
O519       Mg538   2.149       .  S
O520       Mg532   2.305       .  S
Mg521       O537   2.270       .  S
O522       Mg538   2.284       .  S
H523        C528   1.081       .  S
O524       Mg532   2.139       .  S
O524        C527   1.239       .  S
H525        C527   1.081       .  S
H526        C529   1.081       .  S
O531       Mg538   2.299       .  S
C534        O539   1.275       .  A
C534       C1310   1.483       .  S
O535        C536   1.273       .  A
C536       C1338   1.479       .  S
C541        C542   1.527       .  S
C541        C547   1.529   1_554  S
C541        C545   1.559       .  S
C541       C1254   1.539       .  S
C542        H549   1.087       .  S
C542        C543   1.361       .  D
C543        C544   1.540       .  S
C543       C1341   1.482       .  S
C544        C548   1.539   1_554  S
C544        C546   1.539       .  S
C544        H550   1.109       .  S
C545        H551   1.083       .  S
C545        C546   1.382       .  D
C546       C1271   1.494       .  S
C547        H552   1.087       .  S
C547        C548   1.356       .  D
C548       C1509   1.480       .  S
C553        C554   1.527       .  S
C553        C559   1.523   1_545  S
C553        C557   1.559       .  S
C553       C1226   1.533       .  S
C554        H561   1.087       .  S
C554        C555   1.364       .  D
C555        C556   1.549       .  S
C555       C1327   1.491       .  S
C556        C560   1.546   1_545  S
C556        C558   1.535       .  S
C556        H562   1.110       .  S
C557        H563   1.082   1_545  S
C557        C558   1.379       .  D
C558       C1240   1.491   1_545  S
C559        H564   1.088       .  S
C559        C560   1.354       .  D
C560       C1635   1.478       .  S
O565       Mg567   2.146   1_545  S
O565       Mg573   2.129   1_645  S
O565        C600   1.240       .  S
C566        O579   1.238       .  S
C566        O603   1.272       .  A
C566        H605   1.081   1_545  S
Mg567       O596   2.131       .  S
Mg567       O611   2.335       .  S
Mg567       O607   2.283       .  S
Mg567       O578   2.310   1_565  S
O568       Mg610   2.142       .  S
O568       Mg593   2.135       .  S
O568        C589   1.240   1_455  S
O569        C600   1.275       .  A
O569       Mg593   2.312   1_655  S
C570        O572   1.271       .  A
C570        O584   1.279       .  A
C570       C1411   1.488       .  S
O571        C599   1.272   1_455  A
O571       Mg573   2.303       .  S
O572       Mg604   2.244   1_545  S
Mg573       O579   2.126   1_565  S
Mg573       O587   2.254   1_455  S
Mg573       O575   2.311       .  S
C574        O612   1.273       .  A
C574        O580   1.280   1_655  A
C574       C1366   1.493       .  S
O575        C582   1.277   1_565  A
H576        C589   1.081       .  S
C577        O591   1.237       .  S
C577        O592   1.271       .  A
C577        H602   1.081   1_655  S
O578        C601   1.275       .  A
O579       Mg593   2.136       .  S
O580       Mg610   2.327       .  S
C581        O594   1.276       .  A
C581        O586   1.280       .  A
C581       C1212   1.504       .  S
C582        O609   1.275       .  A
C582       C1968   1.498       .  S
Mg583       O590   2.149       .  S
Mg583       O591   2.137       .  S
Mg583       O584   2.344       .  S
Mg583       O585   2.303       .  S
Mg583       O612   2.268       .  S
O585        C589   1.273       .  A
O586       Mg593   2.338       .  S
O587        C606   1.270       .  A
O588        C608   1.277       .  A
O588       Mg604   2.314       .  S
O590       Mg604   2.137   1_545  S
O590        C601   1.241       .  S
O591       Mg610   2.135   1_655  S
O592       Mg604   2.300   1_545  S
Mg593       O609   2.290       .  S
O594       Mg610   2.282       .  S
H595        C600   1.081       .  S
O596       Mg604   2.115       .  S
O596        C599   1.238       .  S
H597        C599   1.081       .  S
H598        C601   1.081       .  S
O603       Mg610   2.300       .  S
C606        O611   1.278       .  A
C606       C1201   1.496       .  S
O607        C608   1.273       .  A
C608       C2139   1.498       .  S
O613       Mg615   2.126   1_554  S
O613       Mg621   2.142       .  S
O613        C648   1.238       .  S
C614        O627   1.238   1_545  S
C614        O651   1.272       .  A
C614        H653   1.081       .  S
Mg615       O644   2.128   1_565  S
Mg615       O659   2.322       .  S
Mg615       O655   2.260   1_565  S
Mg615       O626   2.307       .  S
O616       Mg658   2.136       .  S
O616       Mg641   2.130   1_545  S
O616        C637   1.238   1_545  S
O617        C648   1.272   1_655  A
O617       Mg641   2.300       .  S
C618        O620   1.270       .  A
C618        O632   1.276   1_455  A
C618       C1481   1.489       .  S
O619        C647   1.271       .  A
O619       Mg621   2.298   1_545  S
O620       Mg652   2.234       .  S
Mg621       O627   2.149       .  S
Mg621       O635   2.280       .  S
Mg621       O623   2.321       .  S
C622        O660   1.272   1_554  A
C622        O628   1.276       .  A
C622       C1926   1.475       .  S
O623        C630   1.276       .  A
H624        C637   1.081       .  S
C625        O639   1.239   1_455  S
C625        O640   1.274       .  A
C625        H650   1.081       .  S
O626        C649   1.273   1_465  A
O627       Mg641   2.141   1_455  S
O628       Mg658   2.326       .  S
C629        O642   1.272       .  A
C629        O634   1.277   1_545  A
C629       C1397   1.477       .  S
C630        O657   1.272   1_455  A
C630       C1691   1.491       .  S
Mg631       O638   2.133   1_655  S
Mg631       O639   2.135   1_556  S
Mg631       O632   2.319       .  S
Mg631       O633   2.302       .  S
Mg631       O660   2.258       .  S
O633        C637   1.272   1_546  A
O634       Mg641   2.331       .  S
O635        C654   1.276       .  A
O636        C656   1.275       .  A
O636       Mg652   2.319       .  S
O638       Mg652   2.133       .  S
O638        C649   1.238   1_455  S
O639       Mg658   2.136       .  S
O640       Mg652   2.305   1_554  S
Mg641       O657   2.238       .  S
O642       Mg658   2.265       .  S
H643        C648   1.081   1_556  S
O644       Mg652   2.125       .  S
O644        C647   1.238   1_556  S
H645        C647   1.081       .  S
H646        C649   1.081       .  S
O651       Mg658   2.303   1_455  S
C654        O659   1.277   1_554  A
C654       C1604   1.499       .  S
O655        C656   1.273       .  A
C656       C1982   1.481       .  S
O661       Mg663   2.137       .  S
O661       Mg669   2.136       .  S
O661        C696   1.239       .  S
C662        O675   1.241   1_565  S
C662        O699   1.275       .  A
C662        H701   1.081       .  S
Mg663       O692   2.148   1_545  S
Mg663       O707   2.332       .  S
Mg663       O703   2.263       .  S
Mg663       O674   2.297       .  S
O664       Mg706   2.134       .  S
O664       Mg689   2.126   1_565  S
O664        C685   1.239   1_565  S
O665        C696   1.273       .  A
O665       Mg689   2.305       .  S
C666        O668   1.275       .  A
C666        O680   1.280       .  A
C666       C2027   1.499       .  S
O667        C695   1.274       .  A
O667       Mg669   2.307   1_565  S
O668       Mg700   2.282       .  S
Mg669       O675   2.145       .  S
Mg669       O683   2.291       .  S
Mg669       O671   2.370       .  S
C670        O708   1.275       .  A
C670        O676   1.275       .  A
C670       C2153   1.482       .  S
O671        C678   1.285       .  A
H672        C685   1.081       .  S
C673        O687   1.239       .  S
C673        O688   1.273       .  A
C673        H698   1.081       .  S
O674        C697   1.272   1_545  A
O675       Mg689   2.135       .  S
O676       Mg706   2.316       .  S
C677        O690   1.270       .  A
C677        O682   1.279   1_565  A
C677       C2293   1.495       .  S
C678        O705   1.272       .  A
C678       C1551   1.504       .  S
Mg679       O686   2.125       .  S
Mg679       O687   2.135       .  S
Mg679       O680   2.325       .  S
Mg679       O681   2.299       .  S
Mg679       O708   2.268       .  S
O681        C685   1.272   1_565  A
O682       Mg689   2.334       .  S
O683        C702   1.277       .  A
O684        C704   1.277       .  A
O684       Mg700   2.323       .  S
O686       Mg700   2.139       .  S
O686        C697   1.239       .  S
O687       Mg706   2.129       .  S
O688       Mg700   2.300       .  S
Mg689       O705   2.256       .  S
O690       Mg706   2.251       .  S
H691        C696   1.081       .  S
O692       Mg700   2.148       .  S
O692        C695   1.240       .  S
H693        C695   1.081       .  S
H694        C697   1.081       .  S
O699       Mg706   2.307       .  S
C702        O707   1.278       .  A
C702       C1184   1.486       .  S
O703        C704   1.273   1_545  A
C704       C1243   1.476       .  S
C709        C710   1.525       .  S
C709        C715   1.529       .  S
C709        C713   1.553       .  S
C709       C1520   1.538       .  S
C710        H717   1.088       .  S
C710        C711   1.357       .  D
C711        C712   1.554       .  S
C711       C1187   1.491       .  S
C712        C716   1.552       .  S
C712        C714   1.546       .  S
C712        H718   1.110       .  S
C713        H719   1.076       .  S
C713        C714   1.377       .  D
C714       C1296   1.499       .  S
C715        H720   1.087       .  S
C715        C716   1.359       .  D
C716       C1215   1.491       .  S
O721       Mg723   2.144       .  S
O721       Mg729   2.130   1_565  S
O721        C756   1.237   1_556  S
C722        O735   1.237       .  S
C722        O759   1.271   1_556  A
C722        H761   1.081       .  S
Mg723       O752   2.135       .  S
Mg723       O767   2.322       .  S
Mg723       O763   2.250       .  S
Mg723       O734   2.307   1_556  S
O724       Mg766   2.139       .  S
O724       Mg749   2.139       .  S
O724        C745   1.239   1_545  S
O725        C756   1.272       .  A
O725       Mg749   2.306   1_565  S
C726        O728   1.277   1_554  A
C726        O740   1.276       .  A
C726       C1593   1.485       .  S
O727        C755   1.275   1_545  A
O727       Mg729   2.317       .  S
O728       Mg760   2.286       .  S
Mg729       O735   2.136       .  S
Mg729       O743   2.274   1_545  S
Mg729       O731   2.358       .  S
C730        O768   1.272       .  A
C730        O736   1.272   1_565  A
C730       C1229   1.470   1_565  S
O731        C738   1.281       .  A
H732        C745   1.081       .  S
C733        O747   1.236       .  S
C733        O748   1.270   1_554  A
C733        H758   1.081   1_565  S
O734        C757   1.274       .  A
O735       Mg749   2.139   1_556  S
O736       Mg766   2.298       .  S
C737        O750   1.267       .  A
C737        O742   1.276       .  A
C737       C1170   1.481       .  S
C738        O765   1.271   1_556  A
C738       C1912   1.479       .  S
Mg739       O746   2.145       .  S
Mg739       O747   2.134       .  S
Mg739       O740   2.320       .  S
Mg739       O741   2.302       .  S
Mg739       O768   2.270       .  S
O741        C745   1.272       .  A
O742       Mg749   2.339       .  S
O743        C762   1.274       .  A
O744        C764   1.280       .  A
O744       Mg760   2.343       .  S
O746       Mg760   2.142   1_554  S
O746        C757   1.239       .  S
O747       Mg766   2.121   1_565  S
O748       Mg760   2.298       .  S
Mg749       O765   2.238       .  S
O750       Mg766   2.216       .  S
H751        C756   1.081       .  S
O752       Mg760   2.154       .  S
O752        C755   1.239       .  S
H753        C755   1.081       .  S
H754        C757   1.081       .  S
O759       Mg766   2.295       .  S
C762        O767   1.275       .  A
C762       C2276   1.477       .  S
O763        C764   1.270       .  A
C764       C1156   1.490       .  S
C769        C770   1.539       .  S
C769        C775   1.523       .  S
C769        C773   1.560       .  S
C769       C1173   1.548       .  S
C770        H777   1.084       .  S
C770        C771   1.355       .  D
C771        C772   1.544       .  S
C771       C1313   1.487       .  S
C772        C776   1.543       .  S
C772        C774   1.535       .  S
C772        H778   1.109       .  S
C773        H779   1.083       .  S
C773        C774   1.382       .  D
C774       C1145   1.497       .  S
C775        H780   1.087       .  S
C775        C776   1.361       .  D
C776       C1453   1.486       .  S
O781       Mg783   2.138       .  S
O781       Mg789   2.132       .  S
O781        C816   1.239       .  S
C782        O795   1.237       .  S
C782        O819   1.270       .  A
C782        H821   1.081       .  S
Mg783       O812   2.141   1_556  S
Mg783       O827   2.343       .  S
Mg783       O823   2.270   1_556  S
Mg783       O794   2.304   1_556  S
O784       Mg826   2.150   1_556  S
O784       Mg809   2.126       .  S
O784        C805   1.239       .  S
O785        C816   1.273       .  A
O785       Mg809   2.304       .  S
C786        O788   1.277       .  A
C786        O800   1.273       .  A
C786       C1758   1.493       .  S
O787        C815   1.274       .  A
O787       Mg789   2.310   1_554  S
O788       Mg820   2.300       .  S
Mg789       O795   2.134       .  S
Mg789       O803   2.273       .  S
Mg789       O791   2.331       .  S
C790        O828   1.270       .  A
C790        O796   1.275       .  A
C790       C2052   1.478       .  S
O791        C798   1.279       .  A
H792        C805   1.081       .  S
C793        O807   1.238       .  S
C793        O808   1.271       .  A
C793        H818   1.081       .  S
O794        C817   1.273       .  A
O795       Mg809   2.142       .  S
O796       Mg826   2.289       .  S
C797        O810   1.272       .  A
C797        O802   1.280       .  A
C797       C1128   1.488       .  S
C798        O825   1.274       .  A
C798       C1873   1.493       .  S
Mg799       O806   2.131       .  S
Mg799       O807   2.149       .  S
Mg799       O800   2.290       .  S
Mg799       O801   2.294   1_554  S
Mg799       O828   2.261       .  S
O801        C805   1.271       .  A
O802       Mg809   2.333       .  S
O803        C822   1.273       .  A
O804        C824   1.278       .  A
O804       Mg820   2.323       .  S
O806       Mg820   2.148       .  S
O806        C817   1.240       .  S
O807       Mg826   2.125       .  S
O808       Mg820   2.298       .  S
Mg809       O825   2.264       .  S
O810       Mg826   2.264   1_556  S
H811        C816   1.081       .  S
O812       Mg820   2.144       .  S
O812        C815   1.239       .  S
H813        C815   1.081       .  S
H814        C817   1.081       .  S
O819       Mg826   2.293   1_556  S
C822        O827   1.281       .  A
C822       C1268   1.500       .  S
O823        C824   1.274       .  A
C824       C1142   1.475       .  S
O829       Mg831   2.140       .  S
O829       Mg837   2.133       .  S
O829        C864   1.239       .  S
C830        O843   1.237       .  S
C830        O867   1.270       .  A
C830        H869   1.081       .  S
Mg831       O860   2.129       .  S
Mg831       O875   2.343       .  S
Mg831       O871   2.271       .  S
Mg831       O842   2.319   1_455  S
O832       Mg874   2.151       .  S
O832       Mg857   2.131       .  S
O832        C853   1.238       .  S
O833        C864   1.272   1_655  A
O833       Mg857   2.302       .  S
C834        O836   1.276       .  A
C834        O848   1.278       .  A
C834       C2181   1.503       .  S
O835        C863   1.274       .  A
O835       Mg837   2.312       .  S
O836       Mg868   2.286       .  S
Mg837       O843   2.122       .  S
Mg837       O851   2.252       .  S
Mg837       O839   2.307       .  S
C838        O876   1.279       .  A
C838        O844   1.275       .  A
C838       C1831   1.498       .  S
O839        C846   1.275       .  A
H840        C853   1.081       .  S
C841        O855   1.238       .  S
C841        O856   1.273       .  A
C841        H866   1.081       .  S
O842        C865   1.276       .  A
O843       Mg857   2.148   1_455  S
O844       Mg874   2.296       .  S
C845        O858   1.273       .  A
C845        O850   1.278       .  A
C845       C1352   1.488       .  S
C846        O873   1.274       .  A
C846       C1114   1.496       .  S
Mg847       O854   2.163       .  S
Mg847       O855   2.148       .  S
Mg847       O848   2.325       .  S
Mg847       O849   2.298       .  S
Mg847       O876   2.319       .  S
O849        C853   1.272       .  A
O850       Mg857   2.315       .  S
O851        C870   1.270       .  A
O852        C872   1.281   1_655  A
O852       Mg868   2.347       .  S
O854       Mg868   2.148       .  S
O854        C865   1.240       .  S
O855       Mg874   2.137       .  S
O856       Mg868   2.305       .  S
Mg857       O873   2.277   1_655  S
O858       Mg874   2.271       .  S
H859        C864   1.081       .  S
O860       Mg868   2.146   1_455  S
O860        C863   1.239       .  S
H861        C863   1.081       .  S
H862        C865   1.081       .  S
O867       Mg874   2.290   1_455  S
C870        O875   1.278       .  A
C870       C1733   1.479       .  S
O871        C872   1.272       .  A
C872       C1100   1.490       .  S
O877       Mg879   2.139       .  S
O877       Mg885   2.158   1_655  S
O877        C912   1.238       .  S
C878        O891   1.236       .  S
C878        O915   1.269       .  A
C878        H917   1.081       .  S
Mg879       O908   2.139       .  S
Mg879       O923   2.314       .  S
Mg879       O919   2.286       .  S
Mg879       O890   2.302   1_556  S
O880       Mg922   2.163       .  S
O880       Mg905   2.150       .  S
O880        C901   1.239       .  S
O881        C912   1.272   1_554  A
O881       Mg905   2.296   1_655  S
C882        O884   1.271       .  A
C882        O896   1.276   1_655  A
C882       C1677   1.484       .  S
O883        C911   1.269   1_455  A
O883       Mg885   2.286       .  S
O884       Mg916   2.259   1_554  S
Mg885       O891   2.130       .  S
Mg885       O899   2.273   1_455  S
Mg885       O887   2.295       .  S
C886        O924   1.273       .  A
C886        O892   1.278       .  A
C886       C1086   1.490       .  S
O887        C894   1.276       .  A
H888        C901   1.081       .  S
C889        O903   1.239       .  S
C889        O904   1.273   1_554  A
C889        H914   1.081       .  S
O890        C913   1.272       .  A
O891       Mg905   2.151   1_556  S
O892       Mg922   2.312       .  S
C893        O906   1.274       .  A
C893        O898   1.278       .  A
C893       C1257   1.491       .  S
C894        O921   1.276       .  A
C894       C1464   1.487       .  S
Mg895       O902   2.140   1_455  S
Mg895       O903   2.146       .  S
Mg895       O896   2.300       .  S
Mg895       O897   2.304       .  S
Mg895       O924   2.288       .  S
O897        C901   1.273       .  A
O898       Mg905   2.312       .  S
O899        C918   1.273       .  A
O900        C920   1.278       .  A
O900       Mg916   2.326       .  S
O902       Mg916   2.150   1_554  S
O902        C913   1.238       .  S
O903       Mg922   2.134       .  S
O904       Mg916   2.307   1_455  S
Mg905       O921   2.301   1_554  S
O906       Mg922   2.277       .  S
H907        C912   1.081       .  S
O908       Mg916   2.120       .  S
O908        C911   1.237       .  S
H909        C911   1.081       .  S
H910        C913   1.081       .  S
O915       Mg922   2.293   1_556  S
C918        O923   1.278       .  A
C918       C2195   1.484       .  S
O919        C920   1.276       .  A
C920       C2041   1.503       .  S
C925        C926   1.523       .  S
C925        C931   1.535       .  S
C925        C929   1.551       .  S
C925       C1285   1.539       .  S
C926        H933   1.087       .  S
C926        C927   1.362       .  D
C927        C928   1.545       .  S
C927       C1089   1.489       .  S
C928        C932   1.545       .  S
C928        C930   1.544       .  S
C928        H934   1.108       .  S
C929        H935   1.084       .  S
C929        C930   1.380       .  D
C930       C1649   1.501       .  S
C931        H936   1.086       .  S
C931        C932   1.358       .  D
C932       C1117   1.480       .  S
O937       Mg939   2.136       .  S
O937       Mg945   2.129       .  S
O937        C972   1.238       .  S
C938        O951   1.237       .  S
C938        O975   1.271       .  A
C938        H977   1.081       .  S
Mg939       O968   2.143       .  S
Mg939       O983   2.332       .  S
Mg939       O979   2.259       .  S
Mg939       O950   2.296       .  S
O940       Mg982   2.135       .  S
O940       Mg965   2.135       .  S
O940        C961   1.238       .  S
O941        C972   1.272       .  A
O941       Mg965   2.303       .  S
C942        O944   1.270       .  A
C942        O956   1.275       .  A
C942       C1814   1.482       .  S
O943        C971   1.272       .  A
O943       Mg945   2.297       .  S
O944       Mg976   2.246       .  S
Mg945       O951   2.148       .  S
Mg945       O959   2.260       .  S
Mg945       O947   2.303       .  S
C946        O984   1.270       .  A
C946        O952   1.277       .  A
C946       C1772   1.482       .  S
O947        C954   1.273       .  A
H948        C961   1.081       .  S
C949        O963   1.239       .  S
C949        O964   1.273       .  A
C949        H974   1.081       .  S
O950        C973   1.271       .  A
O951       Mg965   2.141       .  S
O952       Mg982   2.331       .  S
C953        O966   1.273       .  A
C953        O958   1.278       .  A
C953       C2013   1.482       .  S
C954        O981   1.271       .  A
C954       C1719   1.463       .  S
Mg955       O962   2.134       .  S
Mg955       O963   2.141       .  S
Mg955       O956   2.321       .  S
Mg955       O957   2.301       .  S
Mg955       O984   2.236       .  S
O957        C961   1.271       .  A
O958       Mg965   2.346       .  S
O959        C978   1.272       .  A
O960        C980   1.278       .  A
O960       Mg976   2.332       .  S
O962       Mg976   2.138       .  S
O962        C973   1.237       .  S
O963       Mg982   2.151       .  S
O964       Mg976   2.309       .  S
Mg965       O981   2.243       .  S
O966       Mg982   2.263       .  S
H967        C972   1.081       .  S
O968       Mg976   2.126       .  S
O968        C971   1.239       .  S
H969        C971   1.081       .  S
H970        C973   1.081       .  S
O975       Mg982   2.304       .  S
C978        O983   1.276       .  A
C978       C1887   1.478       .  S
O979        C980   1.274       .  A
C980       C1537   1.486       .  S
C985        C986   1.539   1_655  S
C985        C991   1.530       .  S
C985        C989   1.544       .  S
C985       C1198   1.545       .  S
C986        H993   1.082       .  S
C986        C987   1.360       .  D
C987        C988   1.545   1_455  S
C987       C1072   1.487       .  S
C988        C992   1.548       .  S
C988        C990   1.542       .  S
C988        H994   1.111       .  S
C989        H995   1.085       .  S
C989        C990   1.373       .  D
C990       C1103   1.487       .  S
C991        H996   1.084       .  S
C991        C992   1.364       .  D
C992       C2391   1.494       .  S
O997       Mg999   2.140       .  S
O997      Mg1005   2.133       .  S
O997       C1032   1.238       .  S
C998       O1011   1.239       .  S
C998       O1035   1.272       .  A
C998       H1037   1.081       .  S
Mg999      O1028   2.139       .  S
Mg999      O1043   2.310       .  S
Mg999      O1039   2.256       .  S
Mg999      O1010   2.299       .  S
O1000     Mg1042   2.142       .  S
O1000     Mg1025   2.127       .  S
O1000      C1021   1.238       .  S
O1001      C1032   1.273       .  A
O1001     Mg1025   2.304       .  S
C1002      O1004   1.273       .  A
C1002      O1016   1.275       .  A
C1002      C1061   1.476       .  S
O1003      C1031   1.275       .  A
O1003     Mg1005   2.316       .  S
O1004     Mg1036   2.272       .  S
Mg1005     O1011   2.130       .  S
Mg1005     O1019   2.261       .  S
Mg1005     O1007   2.330       .  S
C1006      O1044   1.270       .  A
C1006      O1012   1.281       .  A
C1006      C1842   1.483       .  S
O1007      C1014   1.279       .  A
H1008      C1021   1.081       .  S
C1009      O1023   1.238       .  S
C1009      O1024   1.273       .  A
C1009      H1034   1.081       .  S
O1010      C1033   1.271       .  A
O1011     Mg1025   2.142       .  S
O1012     Mg1042   2.360       .  S
C1013      O1026   1.277       .  A
C1013      O1018   1.274       .  A
C1013      C1702   1.479       .  S
C1014      O1041   1.270       .  A
C1014      C1075   1.497       .  S
Mg1015     O1022   2.128       .  S
Mg1015     O1023   2.133       .  S
Mg1015     O1016   2.318       .  S
Mg1015     O1017   2.293       .  S
Mg1015     O1044   2.222       .  S
O1017      C1021   1.271       .  A
O1018     Mg1025   2.302       .  S
O1019      C1038   1.271       .  A
O1020      C1040   1.276       .  A
O1020     Mg1036   2.328       .  S
O1022     Mg1036   2.131       .  S
O1022      C1033   1.237       .  S
O1023     Mg1042   2.148       .  S
O1024     Mg1036   2.307       .  S
Mg1025     O1041   2.254       .  S
O1026     Mg1042   2.284       .  S
H1027      C1032   1.081       .  S
O1028     Mg1036   2.145       .  S
O1028      C1031   1.239       .  S
H1029      C1031   1.081       .  S
H1030      C1033   1.081       .  S
O1035     Mg1042   2.299       .  S
C1038      O1043   1.274       .  A
C1038      C1943   1.472       .  S
O1039      C1040   1.271       .  A
C1040      C1579   1.475       .  S
C1045      C1046   1.527       .  S
C1045      C1051   1.529       .  S
C1045      C1049   1.556       .  S
C1045      C1058   1.536       .  S
C1046      H1053   1.087       .  S
C1046      C1047   1.356       .  D
C1047      C1048   1.549       .  S
C1047      C1159   1.483       .  S
C1048      C1052   1.544       .  S
C1048      C1050   1.544       .  S
C1048      H1054   1.110       .  S
C1049      H1055   1.078       .  S
C1049      C1050   1.380       .  D
C1050      C2349   1.503       .  S
C1051      H1056   1.087       .  S
C1051      C1052   1.361       .  D
C1052      C1131   1.486       .  S
C1057      H1064   1.078       .  S
C1057      C1058   1.410       .  A
C1057      C1062   1.411       .  A
C1058      C1059   1.422       .  A
C1059      C1060   1.400       .  A
C1059      N1066   1.434       .  S
C1060      H1065   1.084       .  S
C1060      C1061   1.396       .  A
C1061      C1062   1.410       .  A
C1062      N1063   1.438       .  S
N1063      H1067   1.045       .  S
N1063      H1068   1.046       .  S
N1066      H1069   1.045       .  S
N1066      H1070   1.046       .  S
C1071      H1078   1.082       .  S
C1071      C1072   1.400       .  A
C1071      C1076   1.410       .  A
C1072      C1073   1.417       .  A
C1073      C1074   1.400       .  A
C1073      N1080   1.438       .  S
C1074      H1079   1.084       .  S
C1074      C1075   1.406       .  A
C1075      C1076   1.422       .  A
C1076      N1077   1.438       .  S
N1077      H1081   1.046       .  S
N1077      H1082   1.046       .  S
N1080      H1083   1.044       .  S
N1080      H1084   1.046       .  S
C1085      H1092   1.084       .  S
C1085      C1086   1.403       .  A
C1085      C1090   1.400       .  A
C1086      C1087   1.421       .  A
C1087      C1088   1.408       .  A
C1087      N1094   1.432       .  S
C1088      H1093   1.084       .  S
C1088      C1089   1.402       .  A
C1089      C1090   1.411       .  A
C1090      N1091   1.433       .  S
N1091      H1095   1.045       .  S
N1091      H1096   1.046       .  S
N1094      H1097   1.045       .  S
N1094      H1098   1.045       .  S
C1099      H1106   1.084       .  S
C1099      C1100   1.405   1_655  A
C1099      C1104   1.408       .  A
C1100      C1101   1.417       .  A
C1101      C1102   1.412       .  A
C1101      N1108   1.438       .  S
C1102      H1107   1.084       .  S
C1102      C1103   1.403   1_455  A
C1103      C1104   1.407       .  A
C1104      N1105   1.435       .  S
N1105      H1109   1.045       .  S
N1105      H1110   1.046       .  S
N1108      H1111   1.045       .  S
N1108      H1112   1.046       .  S
C1113      H1120   1.083       .  S
C1113      C1114   1.411       .  A
C1113      C1118   1.409       .  A
C1114      C1115   1.419       .  A
C1115      C1116   1.405       .  A
C1115      N1122   1.438       .  S
C1116      H1121   1.084       .  S
C1116      C1117   1.401       .  A
C1117      C1118   1.405       .  A
C1118      N1119   1.438       .  S
N1119      H1123   1.046       .  S
N1119      H1124   1.046       .  S
N1122      H1125   1.046       .  S
N1122      H1126   1.046       .  S
C1127      H1134   1.084       .  S
C1127      C1128   1.410       .  A
C1127      C1132   1.405       .  A
C1128      C1129   1.409       .  A
C1129      C1130   1.403       .  A
C1129      N1136   1.432       .  S
C1130      H1135   1.084       .  S
C1130      C1131   1.405       .  A
C1131      C1132   1.410       .  A
C1132      N1133   1.432       .  S
N1133      H1137   1.045       .  S
N1133      H1138   1.045       .  S
N1136      H1139   1.046       .  S
N1136      H1140   1.046       .  S
C1141      H1148   1.084       .  S
C1141      C1142   1.395       .  A
C1141      C1146   1.402       .  A
C1142      C1143   1.412       .  A
C1143      C1144   1.411       .  A
C1143      N1150   1.438       .  S
C1144      H1149   1.083       .  S
C1144      C1145   1.406       .  A
C1145      C1146   1.418       .  A
C1146      N1147   1.431       .  S
N1147      H1151   1.046       .  S
N1147      H1152   1.046       .  S
N1150      H1153   1.045       .  S
N1150      H1154   1.046       .  S
C1155      H1162   1.084       .  S
C1155      C1156   1.405       .  A
C1155      C1160   1.406       .  A
C1156      C1157   1.414       .  A
C1157      C1158   1.403       .  A
C1157      N1164   1.433       .  S
C1158      H1163   1.081       .  S
C1158      C1159   1.401       .  A
C1159      C1160   1.418       .  A
C1160      N1161   1.438       .  S
N1161      H1165   1.045       .  S
N1161      H1166   1.043       .  S
N1164      H1167   1.046       .  S
N1164      H1168   1.046       .  S
C1169      H1176   1.084       .  S
C1169      C1170   1.403       .  A
C1169      C1174   1.410       .  A
C1170      C1171   1.404       .  A
C1171      C1172   1.393       .  A
C1171      N1178   1.435       .  S
C1172      H1177   1.077       .  S
C1172      C1173   1.415       .  A
C1173      C1174   1.430       .  A
C1174      N1175   1.432       .  S
N1175      H1179   1.042       .  S
N1175      H1180   1.041       .  S
N1178      H1181   1.046       .  S
N1178      H1182   1.046       .  S
C1183      H1190   1.084       .  S
C1183      C1184   1.404       .  A
C1183      C1188   1.404       .  A
C1184      C1185   1.412       .  A
C1185      C1186   1.406       .  A
C1185      N1192   1.432       .  S
C1186      H1191   1.080       .  S
C1186      C1187   1.406       .  A
C1187      C1188   1.416       .  A
C1188      N1189   1.434       .  S
N1189      H1193   1.046       .  S
N1189      H1194   1.044       .  S
N1192      H1195   1.045       .  S
N1192      H1196   1.045       .  S
C1197      H1204   1.080       .  S
C1197      C1198   1.407   1_455  A
C1197      C1202   1.395       .  A
C1198      C1199   1.420       .  A
C1199      C1200   1.413       .  A
C1199      N1206   1.438       .  S
C1200      H1205   1.083       .  S
C1200      C1201   1.408       .  A
C1201      C1202   1.421   1_655  A
C1202      N1203   1.433       .  S
N1203      H1207   1.045       .  S
N1203      H1208   1.046       .  S
N1206      H1209   1.045       .  S
N1206      H1210   1.045       .  S
C1211      H1218   1.083       .  S
C1211      C1212   1.413       .  A
C1211      C1216   1.410       .  A
C1212      C1213   1.423       .  A
C1213      C1214   1.402       .  A
C1213      N1220   1.433       .  S
C1214      H1219   1.084       .  S
C1214      C1215   1.404       .  A
C1215      C1216   1.406       .  A
C1216      N1217   1.432       .  S
N1217      H1221   1.045       .  S
N1217      H1222   1.045       .  S
N1220      H1223   1.045       .  S
N1220      H1224   1.045       .  S
C1225      H1232   1.079   1_545  S
C1225      C1226   1.409       .  A
C1225      C1230   1.407   1_545  A
C1226      C1227   1.421       .  A
C1227      C1228   1.397       .  A
C1227      N1234   1.434       .  S
C1228      H1233   1.085       .  S
C1228      C1229   1.394       .  A
C1229      C1230   1.416   1_545  A
C1230      N1231   1.438       .  S
N1231      H1235   1.045   1_565  S
N1231      H1236   1.043       .  S
N1234      H1237   1.046       .  S
N1234      H1238   1.046       .  S
C1239      H1246   1.078       .  S
C1239      C1240   1.407       .  A
C1239      C1244   1.402       .  A
C1240      C1241   1.413   1_565  A
C1241      C1242   1.402       .  A
C1241      N1248   1.432       .  S
C1242      H1247   1.084       .  S
C1242      C1243   1.405   1_545  A
C1243      C1244   1.413       .  A
C1244      N1245   1.439       .  S
N1245      H1249   1.046       .  S
N1245      H1250   1.043       .  S
N1248      H1251   1.045       .  S
N1248      H1252   1.044       .  S
C1253      H1260   1.083       .  S
C1253      C1254   1.414       .  A
C1253      C1258   1.396       .  A
C1254      C1255   1.414       .  A
C1255      C1256   1.414       .  A
C1255      N1262   1.430       .  S
C1256      H1261   1.083       .  S
C1256      C1257   1.410       .  A
C1257      C1258   1.407       .  A
C1258      N1259   1.434       .  S
N1259      H1263   1.046       .  S
N1259      H1264   1.046   1_554  S
N1262      H1265   1.046       .  S
N1262      H1266   1.045       .  S
C1267      H1274   1.083       .  S
C1267      C1268   1.406   1_554  A
C1267      C1272   1.405       .  A
C1268      C1269   1.420       .  A
C1269      C1270   1.411       .  A
C1269      N1276   1.432       .  S
C1270      H1275   1.084       .  S
C1270      C1271   1.402   1_556  A
C1271      C1272   1.411       .  A
C1272      N1273   1.432       .  S
N1273      H1277   1.046       .  S
N1273      H1278   1.045       .  S
N1276      H1279   1.046       .  S
N1276      H1280   1.046       .  S
C1281      H1288   1.083       .  S
C1281      C1282   1.407       .  A
C1281      C1286   1.415       .  A
C1282      C1283   1.412       .  A
C1283      C1284   1.396       .  A
C1283      N1290   1.434       .  S
C1284      H1289   1.081       .  S
C1284      C1285   1.410       .  A
C1285      C1286   1.420       .  A
C1286      N1287   1.437       .  S
N1287      H1291   1.046       .  S
N1287      H1292   1.045       .  S
N1290      H1293   1.046       .  S
N1290      H1294   1.046       .  S
C1295      H1302   1.079       .  S
C1295      C1296   1.403       .  A
C1295      C1300   1.409       .  A
C1296      C1297   1.411       .  A
C1297      C1298   1.407       .  A
C1297      N1304   1.432       .  S
C1298      H1303   1.083       .  S
C1298      C1299   1.410       .  A
C1299      C1300   1.420       .  A
C1300      N1301   1.438       .  S
N1301      H1305   1.046       .  S
N1301      H1306   1.046       .  S
N1304      H1307   1.046       .  S
N1304      H1308   1.046       .  S
C1309      H1316   1.084       .  S
C1309      C1310   1.401       .  A
C1309      C1314   1.394       .  A
C1310      C1311   1.414       .  A
C1311      C1312   1.413       .  A
C1311      N1318   1.437       .  S
C1312      H1317   1.084       .  S
C1312      C1313   1.402       .  A
C1313      C1314   1.421       .  A
C1314      N1315   1.435       .  S
N1315      H1319   1.043       .  S
N1315      H1320   1.042       .  S
N1318      H1321   1.046       .  S
N1318      H1322   1.046       .  S
C1323      H1330   1.084       .  S
C1323      C1324   1.412       .  A
C1323      C1328   1.409       .  A
C1324      C1325   1.417       .  A
C1325      C1326   1.397       .  A
C1325      N1332   1.433       .  S
C1326      H1331   1.084       .  S
C1326      C1327   1.406       .  A
C1327      C1328   1.405       .  A
C1328      N1329   1.432       .  S
N1329      H1333   1.045       .  S
N1329      H1334   1.045       .  S
N1332      H1335   1.046       .  S
N1332      H1336   1.044       .  S
C1337      H1344   1.084       .  S
C1337      C1338   1.408       .  A
C1337      C1342   1.403       .  A
C1338      C1339   1.407       .  A
C1339      C1340   1.399       .  A
C1339      N1346   1.433       .  S
C1340      H1345   1.084       .  S
C1340      C1341   1.405       .  A
C1341      C1342   1.410       .  A
C1342      N1343   1.432       .  S
N1343      H1347   1.044       .  S
N1343      H1348   1.046       .  S
N1346      H1349   1.046       .  S
N1346      H1350   1.046       .  S
C1351      H1358   1.084       .  S
C1351      C1352   1.410       .  A
C1351      C1356   1.405       .  A
C1352      C1353   1.410       .  A
C1353      C1354   1.401       .  A
C1353      N1360   1.433       .  S
C1354      H1359   1.084   1_655  S
C1354      C1355   1.406       .  A
C1355      C1356   1.410       .  A
C1356      N1357   1.432       .  S
N1357      H1361   1.046   1_655  S
N1357      H1362   1.044       .  S
N1360      H1363   1.046       .  S
N1360      H1364   1.046   1_655  S
C1365      H1372   1.084       .  S
C1365      C1366   1.407   1_455  A
C1365      C1370   1.403       .  A
C1366      C1367   1.416       .  A
C1367      C1368   1.405       .  A
C1367      N1374   1.432       .  S
C1368      H1373   1.084       .  S
C1368      C1369   1.401   1_655  A
C1369      C1370   1.416       .  A
C1370      N1371   1.439       .  S
N1371      H1375   1.046       .  S
N1371      H1376   1.044       .  S
N1374      H1377   1.046       .  S
N1374      H1378   1.046       .  S
C1379      H1386   1.084       .  S
C1379      C1380   1.398       .  A
C1379      C1384   1.400       .  A
C1380      C1381   1.417       .  A
C1381      C1382   1.400       .  A
C1381      N1388   1.433       .  S
C1382      H1387   1.077       .  S
C1382      C1383   1.407       .  A
C1383      C1384   1.421       .  A
C1384      N1385   1.434       .  S
N1385      H1389   1.046       .  S
N1385      H1390   1.046       .  S
N1388      H1391   1.046       .  S
N1388      H1392   1.045       .  S
C1393      H1400   1.080       .  S
C1393      C1394   1.410   1_565  A
C1393      C1398   1.401       .  A
C1394      C1395   1.417       .  A
C1395      C1396   1.412       .  A
C1395      N1402   1.437       .  S
C1396      H1401   1.084       .  S
C1396      C1397   1.403       .  A
C1397      C1398   1.411   1_545  A
C1398      N1399   1.439       .  S
N1399      H1403   1.046       .  S
N1399      H1404   1.043       .  S
N1402      H1405   1.045       .  S
N1402      H1406   1.046       .  S
C1407      H1414   1.079   1_545  S
C1407      C1408   1.417       .  A
C1407      C1412   1.402       .  A
C1408      C1409   1.428       .  A
C1409      C1410   1.407       .  A
C1409      N1416   1.432       .  S
C1410      H1415   1.084       .  S
C1410      C1411   1.403       .  A
C1411      C1412   1.408       .  A
C1412      N1413   1.440       .  S
N1413      H1417   1.046   1_545  S
N1413      H1418   1.046       .  S
N1416      H1419   1.045       .  S
N1416      H1420   1.042       .  S
C1421      H1428   1.084       .  S
C1421      C1422   1.403       .  A
C1421      C1426   1.401       .  A
C1422      C1423   1.415       .  A
C1423      C1424   1.411       .  A
C1423      N1430   1.436       .  S
C1424      H1429   1.084       .  S
C1424      C1425   1.401       .  A
C1425      C1426   1.409       .  A
C1426      N1427   1.438       .  S
N1427      H1431   1.046       .  S
N1427      H1432   1.046       .  S
N1430      H1433   1.044       .  S
N1430      H1434   1.045       .  S
C1435      H1442   1.083       .  S
C1435      C1436   1.409       .  A
C1435      C1440   1.415       .  A
C1436      C1437   1.425       .  A
C1437      C1438   1.397       .  A
C1437      N1444   1.434       .  S
C1438      H1443   1.084       .  S
C1438      C1439   1.400       .  A
C1439      C1440   1.414       .  A
C1440      N1441   1.437       .  S
N1441      H1445   1.045       .  S
N1441      H1446   1.046       .  S
N1444      H1447   1.046       .  S
N1444      H1448   1.044       .  S
C1449      H1456   1.084       .  S
C1449      C1450   1.398       .  A
C1449      C1454   1.401       .  A
C1450      C1451   1.414       .  A
C1451      C1452   1.413       .  A
C1451      N1458   1.437       .  S
C1452      H1457   1.084       .  S
C1452      C1453   1.402       .  A
C1453      C1454   1.414       .  A
C1454      N1455   1.437       .  S
N1455      H1459   1.045       .  S
N1455      H1460   1.045       .  S
N1458      H1461   1.046       .  S
N1458      H1462   1.046       .  S
C1463      H1470   1.084       .  S
C1463      C1464   1.408       .  A
C1463      C1468   1.407       .  A
C1464      C1465   1.412       .  A
C1465      C1466   1.400       .  A
C1465      N1472   1.433       .  S
C1466      H1471   1.084       .  S
C1466      C1467   1.401       .  A
C1467      C1468   1.413       .  A
C1468      N1469   1.432       .  S
N1469      H1473   1.044       .  S
N1469      H1474   1.046   1_455  S
N1472      H1475   1.046       .  S
N1472      H1476   1.046       .  S
C1477      H1484   1.084       .  S
C1477      C1478   1.404   1_655  A
C1477      C1482   1.406       .  A
C1478      C1479   1.404       .  A
C1479      C1480   1.399       .  A
C1479      N1486   1.430       .  S
C1480      H1485   1.083       .  S
C1480      C1481   1.408       .  A
C1481      C1482   1.416   1_455  A
C1482      N1483   1.438       .  S
N1483      H1487   1.046       .  S
N1483      H1488   1.046       .  S
N1486      H1489   1.046       .  S
N1486      H1490   1.045       .  S
C1491      H1498   1.084       .  S
C1491      C1492   1.402       .  A
C1491      C1496   1.408       .  A
C1492      C1493   1.408       .  A
C1493      C1494   1.406       .  A
C1493      N1500   1.432       .  S
C1494      H1499   1.083       .  S
C1494      C1495   1.408       .  A
C1495      C1496   1.420       .  A
C1496      N1497   1.438       .  S
N1497      H1501   1.046       .  S
N1497      H1502   1.046       .  S
N1500      H1503   1.045       .  S
N1500      H1504   1.045       .  S
C1505      H1512   1.084       .  S
C1505      C1506   1.409       .  A
C1505      C1510   1.404       .  A
C1506      C1507   1.420       .  A
C1507      C1508   1.395       .  A
C1507      N1514   1.433       .  S
C1508      H1513   1.085       .  S
C1508      C1509   1.403       .  A
C1509      C1510   1.405       .  A
C1510      N1511   1.431       .  S
N1511      H1515   1.046       .  S
N1511      H1516   1.045       .  S
N1514      H1517   1.045       .  S
N1514      H1518   1.046       .  S
C1519      H1526   1.084       .  S
C1519      C1520   1.416       .  A
C1519      C1524   1.398       .  A
C1520      C1521   1.417       .  A
C1521      C1522   1.406       .  A
C1521      N1528   1.428       .  S
C1522      H1527   1.084       .  S
C1522      C1523   1.405       .  A
C1523      C1524   1.402       .  A
C1524      N1525   1.433       .  S
N1525      H1529   1.046       .  S
N1525      H1530   1.046       .  S
N1528      H1531   1.046       .  S
N1528      H1532   1.046       .  S
C1533      H1540   1.078       .  S
C1533      C1534   1.403       .  A
C1533      C1538   1.412       .  A
C1534      C1535   1.412       .  A
C1535      C1536   1.405       .  A
C1535      N1542   1.438       .  S
C1536      H1541   1.084       .  S
C1536      C1537   1.404       .  A
C1537      C1538   1.413       .  A
C1538      N1539   1.437       .  S
N1539      H1543   1.046       .  S
N1539      H1544   1.046       .  S
N1542      H1545   1.045       .  S
N1542      H1546   1.046       .  S
C1547      H1554   1.084       .  S
C1547      C1548   1.399       .  A
C1547      C1552   1.408       .  A
C1548      C1549   1.416       .  A
C1549      C1550   1.404       .  A
C1549      N1556   1.433       .  S
C1550      H1555   1.083       .  S
C1550      C1551   1.408       .  A
C1551      C1552   1.423       .  A
C1552      N1553   1.433       .  S
N1553      H1557   1.046       .  S
N1553      H1558   1.046       .  S
N1556      H1559   1.046       .  S
N1556      H1560   1.044       .  S
C1561      H1568   1.084       .  S
C1561      C1562   1.415       .  A
C1561      C1566   1.397       .  A
C1562      C1563   1.426       .  A
C1563      C1564   1.409       .  A
C1563      N1570   1.427       .  S
C1564      H1569   1.084       .  S
C1564      C1565   1.405       .  A
C1565      C1566   1.408       .  A
C1566      N1567   1.440       .  S
N1567      H1571   1.046       .  S
N1567      H1572   1.046       .  S
N1570      H1573   1.045       .  S
N1570      H1574   1.044       .  S
C1575      H1582   1.079       .  S
C1575      C1576   1.410       .  A
C1575      C1580   1.410       .  A
C1576      C1577   1.421       .  A
C1577      C1578   1.397       .  A
C1577      N1584   1.434       .  S
C1578      H1583   1.085       .  S
C1578      C1579   1.395       .  A
C1579      C1580   1.418       .  A
C1580      N1581   1.438       .  S
N1581      H1585   1.046       .  S
N1581      H1586   1.043       .  S
N1584      H1587   1.046       .  S
N1584      H1588   1.046       .  S
C1589      H1596   1.084   1_554  S
C1589      C1590   1.409       .  A
C1589      C1594   1.401       .  A
C1590      C1591   1.409       .  A
C1591      C1592   1.416       .  A
C1591      N1598   1.437       .  S
C1592      H1597   1.083       .  S
C1592      C1593   1.411       .  A
C1593      C1594   1.407       .  A
C1594      N1595   1.438       .  S
N1595      H1599   1.046   1_554  S
N1595      H1600   1.046       .  S
N1598      H1601   1.046       .  S
N1598      H1602   1.046       .  S
C1603      H1610   1.083       .  S
C1603      C1604   1.408       .  A
C1603      C1608   1.410       .  A
C1604      C1605   1.415   1_554  A
C1605      C1606   1.405       .  A
C1605      N1612   1.433       .  S
C1606      H1611   1.084       .  S
C1606      C1607   1.405   1_556  A
C1607      C1608   1.412       .  A
C1608      N1609   1.435       .  S
N1609      H1613   1.045       .  S
N1609      H1614   1.045       .  S
N1612      H1615   1.046       .  S
N1612      H1616   1.046       .  S
C1617      H1624   1.083       .  S
C1617      C1618   1.410       .  A
C1617      C1622   1.412       .  A
C1618      C1619   1.416       .  A
C1619      C1620   1.408       .  A
C1619      N1626   1.432       .  S
C1620      H1625   1.083       .  S
C1620      C1621   1.406       .  A
C1621      C1622   1.415       .  A
C1622      N1623   1.438       .  S
N1623      H1627   1.046       .  S
N1623      H1628   1.045       .  S
N1626      H1629   1.046       .  S
N1626      H1630   1.046       .  S
C1631      H1638   1.083       .  S
C1631      C1632   1.411       .  A
C1631      C1636   1.408       .  A
C1632      C1633   1.418       .  A
C1633      C1634   1.404       .  A
C1633      N1640   1.439       .  S
C1634      H1639   1.081       .  S
C1634      C1635   1.401       .  A
C1635      C1636   1.406       .  A
C1636      N1637   1.438       .  S
N1637      H1641   1.045       .  S
N1637      H1642   1.046       .  S
N1640      H1643   1.046       .  S
N1640      H1644   1.046       .  S
C1645      H1652   1.084       .  S
C1645      C1646   1.400       .  A
C1645      C1650   1.407       .  A
C1646      C1647   1.419       .  A
C1647      C1648   1.405       .  A
C1647      N1654   1.439       .  S
C1648      H1653   1.084       .  S
C1648      C1649   1.406       .  A
C1649      C1650   1.416       .  A
C1650      N1651   1.431       .  S
N1651      H1655   1.046       .  S
N1651      H1656   1.046       .  S
N1654      H1657   1.042       .  S
N1654      H1658   1.046       .  S
C1659      H1666   1.084       .  S
C1659      C1660   1.401       .  A
C1659      C1664   1.401       .  A
C1660      C1661   1.406       .  A
C1661      C1662   1.405       .  A
C1661      N1668   1.431       .  S
C1662      H1667   1.084       .  S
C1662      C1663   1.408       .  A
C1663      C1664   1.416       .  A
C1664      N1665   1.433       .  S
N1665      H1669   1.046       .  S
N1665      H1670   1.046       .  S
N1668      H1671   1.045       .  S
N1668      H1672   1.046       .  S
C1673      H1680   1.075       .  S
C1673      C1674   1.411       .  A
C1673      C1678   1.400       .  A
C1674      C1675   1.423   1_455  A
C1675      C1676   1.402       .  A
C1675      N1682   1.435       .  S
C1676      H1681   1.084       .  S
C1676      C1677   1.405       .  A
C1677      C1678   1.411   1_655  A
C1678      N1679   1.439       .  S
N1679      H1683   1.046       .  S
N1679      H1684   1.046       .  S
N1682      H1685   1.044       .  S
N1682      H1686   1.041       .  S
C1687      H1694   1.084       .  S
C1687      C1688   1.404       .  A
C1687      C1692   1.404       .  A
C1688      C1689   1.408   1_455  A
C1689      C1690   1.396       .  A
C1689      N1696   1.432       .  S
C1690      H1695   1.084       .  S
C1690      C1691   1.407   1_655  A
C1691      C1692   1.421       .  A
C1692      N1693   1.432       .  S
N1693      H1697   1.045       .  S
N1693      H1698   1.045       .  S
N1696      H1699   1.046       .  S
N1696      H1700   1.046       .  S
C1701      H1708   1.084       .  S
C1701      C1702   1.401       .  A
C1701      C1706   1.399       .  A
C1702      C1703   1.414       .  A
C1703      C1704   1.405       .  A
C1703      N1710   1.432       .  S
C1704      H1709   1.083       .  S
C1704      C1705   1.404       .  A
C1705      C1706   1.416       .  A
C1706      N1707   1.439       .  S
N1707      H1711   1.045       .  S
N1707      H1712   1.045       .  S
N1710      H1713   1.045       .  S
N1710      H1714   1.046       .  S
C1715      H1722   1.079       .  S
C1715      C1716   1.410       .  A
C1715      C1720   1.406       .  A
C1716      C1717   1.435       .  A
C1717      C1718   1.387       .  A
C1717      N1724   1.437       .  S
C1718      H1723   1.085       .  S
C1718      C1719   1.388       .  A
C1719      C1720   1.414       .  A
C1720      N1721   1.438       .  S
N1721      H1725   1.045       .  S
N1721      H1726   1.043       .  S
N1724      H1727   1.042       .  S
N1724      H1728   1.042       .  S
C1729      H1736   1.084       .  S
C1729      C1730   1.404       .  A
C1729      C1734   1.411       .  A
C1730      C1731   1.414       .  A
C1731      C1732   1.398       .  A
C1731      N1738   1.428       .  S
C1732      H1737   1.084       .  S
C1732      C1733   1.401       .  A
C1733      C1734   1.412       .  A
C1734      N1735   1.437       .  S
N1735      H1739   1.046       .  S
N1735      H1740   1.046       .  S
N1738      H1741   1.043       .  S
N1738      H1742   1.044       .  S
C1743      H1750   1.084       .  S
C1743      C1744   1.403       .  A
C1743      C1748   1.412       .  A
C1744      C1745   1.425       .  A
C1745      C1746   1.394       .  A
C1745      N1752   1.439       .  S
C1746      H1751   1.085       .  S
C1746      C1747   1.396       .  A
C1747      C1748   1.413       .  A
C1748      N1749   1.437       .  S
N1749      H1753   1.046       .  S
N1749      H1754   1.046       .  S
N1752      H1755   1.040       .  S
N1752      H1756   1.046       .  S
C1757      H1764   1.084       .  S
C1757      C1758   1.406       .  A
C1757      C1762   1.405       .  A
C1758      C1759   1.416       .  A
C1759      C1760   1.402       .  A
C1759      N1766   1.433       .  S
C1760      H1765   1.083       .  S
C1760      C1761   1.400       .  A
C1761      C1762   1.419       .  A
C1762      N1763   1.433       .  S
N1763      H1767   1.043       .  S
N1763      H1768   1.045       .  S
N1766      H1769   1.046       .  S
N1766      H1770   1.046       .  S
C1771      H1778   1.084       .  S
C1771      C1772   1.402       .  A
C1771      C1776   1.406       .  A
C1772      C1773   1.406       .  A
C1773      C1774   1.399       .  A
C1773      N1780   1.440       .  S
C1774      H1779   1.077       .  S
C1774      C1775   1.415       .  A
C1775      C1776   1.429       .  A
C1776      N1777   1.432       .  S
N1777      H1781   1.040       .  S
N1777      H1782   1.043       .  S
N1780      H1783   1.046       .  S
N1780      H1784   1.045       .  S
C1785      H1792   1.083       .  S
C1785      C1786   1.410       .  A
C1785      C1790   1.407       .  A
C1786      C1787   1.422       .  A
C1787      C1788   1.400       .  A
C1787      N1794   1.433       .  S
C1788      H1793   1.084       .  S
C1788      C1789   1.406       .  A
C1789      C1790   1.409       .  A
C1790      N1791   1.430       .  S
N1791      H1795   1.045       .  S
N1791      H1796   1.045       .  S
N1794      H1797   1.045       .  S
N1794      H1798   1.045       .  S
C1799      H1806   1.084       .  S
C1799      C1800   1.404       .  A
C1799      C1804   1.397       .  A
C1800      C1801   1.410       .  A
C1801      C1802   1.403       .  A
C1801      N1808   1.432       .  S
C1802      H1807   1.084       .  S
C1802      C1803   1.406       .  A
C1803      C1804   1.410       .  A
C1804      N1805   1.433       .  S
N1805      H1809   1.044       .  S
N1805      H1810   1.046       .  S
N1808      H1811   1.045       .  S
N1808      H1812   1.045       .  S
C1813      H1820   1.084       .  S
C1813      C1814   1.407       .  A
C1813      C1818   1.414       .  A
C1814      C1815   1.410       .  A
C1815      C1816   1.390       .  A
C1815      N1822   1.434       .  S
C1816      H1821   1.080       .  S
C1816      C1817   1.413       .  A
C1817      C1818   1.418       .  A
C1818      N1819   1.437       .  S
N1819      H1823   1.046       .  S
N1819      H1824   1.045       .  S
N1822      H1825   1.045       .  S
N1822      H1826   1.044       .  S
C1827      H1834   1.084       .  S
C1827      C1828   1.401       .  A
C1827      C1832   1.408       .  A
C1828      C1829   1.408       .  A
C1829      C1830   1.410       .  A
C1829      N1836   1.431       .  S
C1830      H1835   1.083       .  S
C1830      C1831   1.408       .  A
C1831      C1832   1.421       .  A
C1832      N1833   1.439       .  S
N1833      H1837   1.046       .  S
N1833      H1838   1.046       .  S
N1836      H1839   1.045       .  S
N1836      H1840   1.046       .  S
C1841      H1848   1.084       .  S
C1841      C1842   1.403       .  A
C1841      C1846   1.410       .  A
C1842      C1843   1.406       .  A
C1843      C1844   1.397       .  A
C1843      N1850   1.440       .  S
C1844      H1849   1.078       .  S
C1844      C1845   1.416       .  A
C1845      C1846   1.429       .  A
C1846      N1847   1.432       .  S
N1847      H1851   1.042       .  S
N1847      H1852   1.044       .  S
N1850      H1853   1.046       .  S
N1850      H1854   1.046       .  S
C1855      H1862   1.084       .  S
C1855      C1856   1.407       .  A
C1855      C1860   1.405       .  A
C1856      C1857   1.419       .  A
C1857      C1858   1.413       .  A
C1857      N1864   1.437       .  S
C1858      H1863   1.084       .  S
C1858      C1859   1.404       .  A
C1859      C1860   1.408       .  A
C1860      N1861   1.432       .  S
N1861      H1865   1.046       .  S
N1861      H1866   1.045       .  S
N1864      H1867   1.046       .  S
N1864      H1868   1.046       .  S
C1869      H1876   1.084       .  S
C1869      C1870   1.404       .  A
C1869      C1874   1.403       .  A
C1870      C1871   1.407       .  A
C1871      C1872   1.407       .  A
C1871      N1878   1.430       .  S
C1872      H1877   1.084       .  S
C1872      C1873   1.408       .  A
C1873      C1874   1.415       .  A
C1874      N1875   1.433       .  S
N1875      H1879   1.046       .  S
N1875      H1880   1.046       .  S
N1878      H1881   1.046       .  S
N1878      H1882   1.045       .  S
C1883      H1890   1.083       .  S
C1883      C1884   1.404       .  A
C1883      C1888   1.414       .  A
C1884      C1885   1.415       .  A
C1885      C1886   1.401       .  A
C1885      N1892   1.439       .  S
C1886      H1891   1.084       .  S
C1886      C1887   1.398       .  A
C1887      C1888   1.413       .  A
C1888      N1889   1.437       .  S
N1889      H1893   1.046       .  S
N1889      H1894   1.046       .  S
N1892      H1895   1.045       .  S
N1892      H1896   1.046       .  S
C1897      H1904   1.083       .  S
C1897      C1898   1.408       .  A
C1897      C1902   1.406       .  A
C1898      C1899   1.416       .  A
C1899      C1900   1.405       .  A
C1899      N1906   1.432       .  S
C1900      H1905   1.084       .  S
C1900      C1901   1.399       .  A
C1901      C1902   1.416       .  A
C1902      N1903   1.438       .  S
N1903      H1907   1.045       .  S
N1903      H1908   1.043       .  S
N1906      H1909   1.045       .  S
N1906      H1910   1.046       .  S
C1911      H1918   1.085       .  S
C1911      C1912   1.400   1_554  A
C1911      C1916   1.393   1_554  A
C1912      C1913   1.412       .  A
C1913      C1914   1.414       .  A
C1913      N1920   1.437       .  S
C1914      H1919   1.084       .  S
C1914      C1915   1.405       .  A
C1915      C1916   1.417       .  A
C1916      N1917   1.434   1_556  S
N1917      H1921   1.043   1_554  S
N1917      H1922   1.043       .  S
N1920      H1923   1.046   1_556  S
N1920      H1924   1.046       .  S
C1925      H1932   1.085       .  S
C1925      C1926   1.398       .  A
C1925      C1930   1.397       .  A
C1926      C1927   1.420       .  A
C1927      C1928   1.407       .  A
C1927      N1934   1.439       .  S
C1928      H1933   1.084       .  S
C1928      C1929   1.402       .  A
C1929      C1930   1.420       .  A
C1930      N1931   1.439       .  S
N1931      H1935   1.045       .  S
N1931      H1936   1.040       .  S
N1934      H1937   1.042       .  S
N1934      H1938   1.046   1_554  S
C1939      H1946   1.077       .  S
C1939      C1940   1.410       .  A
C1939      C1944   1.409       .  A
C1940      C1941   1.421       .  A
C1941      C1942   1.399       .  A
C1941      N1948   1.434       .  S
C1942      H1947   1.084       .  S
C1942      C1943   1.396       .  A
C1943      C1944   1.409       .  A
C1944      N1945   1.438       .  S
N1945      H1949   1.046       .  S
N1945      H1950   1.046       .  S
N1948      H1951   1.046       .  S
N1948      H1952   1.046       .  S
C1953      H1960   1.083       .  S
C1953      C1954   1.410       .  A
C1953      C1958   1.411       .  A
C1954      C1955   1.416       .  A
C1955      C1956   1.405       .  A
C1955      N1962   1.433       .  S
C1956      H1961   1.084       .  S
C1956      C1957   1.403       .  A
C1957      C1958   1.411       .  A
C1958      N1959   1.437       .  S
N1959      H1963   1.045       .  S
N1959      H1964   1.046       .  S
N1962      H1965   1.046       .  S
N1962      H1966   1.046       .  S
C1967      H1974   1.084       .  S
C1967      C1968   1.408   1_565  A
C1967      C1972   1.401       .  A
C1968      C1969   1.416       .  A
C1969      C1970   1.409       .  A
C1969      N1976   1.432       .  S
C1970      H1975   1.084       .  S
C1970      C1971   1.402       .  A
C1971      C1972   1.417   1_545  A
C1972      N1973   1.440       .  S
N1973      H1977   1.046       .  S
N1973      H1978   1.044       .  S
N1976      H1979   1.046       .  S
N1976      H1980   1.046       .  S
C1981      H1988   1.084       .  S
C1981      C1982   1.398       .  A
C1981      C1986   1.399       .  A
C1982      C1983   1.417       .  A
C1983      C1984   1.413       .  A
C1983      N1990   1.438       .  S
C1984      H1989   1.083       .  S
C1984      C1985   1.402       .  A
C1985      C1986   1.417       .  A
C1986      N1987   1.439   1_545  S
N1987      H1991   1.046       .  S
N1987      H1992   1.045   1_565  S
N1990      H1993   1.046       .  S
N1990      H1994   1.046       .  S
C1995      H2002   1.084       .  S
C1995      C1996   1.406       .  A
C1995      C2000   1.399       .  A
C1996      C1997   1.415       .  A
C1997      C1998   1.409       .  A
C1997      N2004   1.432       .  S
C1998      H2003   1.084       .  S
C1998      C1999   1.406       .  A
C1999      C2000   1.418       .  A
C2000      N2001   1.431       .  S
N2001      H2005   1.042       .  S
N2001      H2006   1.040       .  S
N2004      H2007   1.046       .  S
N2004      H2008   1.046       .  S
C2009      H2016   1.083       .  S
C2009      C2010   1.405       .  A
C2009      C2014   1.417       .  A
C2010      C2011   1.420       .  A
C2011      C2012   1.401       .  A
C2011      N2018   1.440       .  S
C2012      H2017   1.084       .  S
C2012      C2013   1.397       .  A
C2013      C2014   1.413       .  A
C2014      N2015   1.437       .  S
N2015      H2019   1.046       .  S
N2015      H2020   1.046       .  S
N2018      H2021   1.041       .  S
N2018      H2022   1.046       .  S
C2023      H2030   1.083       .  S
C2023      C2024   1.402       .  A
C2023      C2028   1.408       .  A
C2024      C2025   1.410       .  A
C2025      C2026   1.406       .  A
C2025      N2032   1.438       .  S
C2026      H2031   1.083       .  S
C2026      C2027   1.408       .  A
C2027      C2028   1.418       .  A
C2028      N2029   1.432       .  S
N2029      H2033   1.046       .  S
N2029      H2034   1.046       .  S
N2032      H2035   1.046       .  S
N2032      H2036   1.045       .  S
C2037      H2044   1.083   1_556  S
C2037      C2038   1.404       .  A
C2037      C2042   1.412       .  A
C2038      C2039   1.409       .  A
C2039      C2040   1.406       .  A
C2039      N2046   1.432       .  S
C2040      H2045   1.083       .  S
C2040      C2041   1.409       .  A
C2041      C2042   1.421       .  A
C2042      N2043   1.438   1_556  S
N2043      H2047   1.046       .  S
N2043      H2048   1.046   1_554  S
N2046      H2049   1.046       .  S
N2046      H2050   1.046       .  S
C2051      H2058   1.084       .  S
C2051      C2052   1.398       .  A
C2051      C2056   1.395       .  A
C2052      C2053   1.416       .  A
C2053      C2054   1.402       .  A
C2053      N2060   1.432       .  S
C2054      H2059   1.078       .  S
C2054      C2055   1.408       .  A
C2055      C2056   1.420       .  A
C2056      N2057   1.435       .  S
N2057      H2061   1.046       .  S
N2057      H2062   1.046   1_554  S
N2060      H2063   1.046       .  S
N2060      H2064   1.045       .  S
C2065      H2072   1.084       .  S
C2065      C2066   1.403       .  A
C2065      C2070   1.407       .  A
C2066      C2067   1.409       .  A
C2067      C2068   1.407       .  A
C2067      N2074   1.437       .  S
C2068      H2073   1.084       .  S
C2068      C2069   1.402       .  A
C2069      C2070   1.409       .  A
C2070      N2071   1.438       .  S
N2071      H2075   1.046       .  S
N2071      H2076   1.046       .  S
N2074      H2077   1.046       .  S
N2074      H2078   1.046       .  S
C2079      H2086   1.084       .  S
C2079      C2080   1.407       .  A
C2079      C2084   1.407       .  A
C2080      C2081   1.410       .  A
C2081      C2082   1.402       .  A
C2081      N2088   1.432       .  S
C2082      H2087   1.081       .  S
C2082      C2083   1.403       .  A
C2083      C2084   1.416       .  A
C2084      N2085   1.439       .  S
N2085      H2089   1.046       .  S
N2085      H2090   1.044       .  S
N2088      H2091   1.046       .  S
N2088      H2092   1.046       .  S
C2093      H2100   1.085       .  S
C2093      C2094   1.392       .  A
C2093      C2098   1.392       .  A
C2094      C2095   1.413       .  A
C2095      C2096   1.407       .  A
C2095      N2102   1.439       .  S
C2096      H2101   1.078       .  S
C2096      C2097   1.412       .  A
C2097      C2098   1.434       .  A
C2098      N2099   1.437       .  S
N2099      H2103   1.041       .  S
N2099      H2104   1.042       .  S
N2102      H2105   1.043       .  S
N2102      H2106   1.046       .  S
C2107      H2114   1.084       .  S
C2107      C2108   1.403       .  A
C2107      C2112   1.402       .  A
C2108      C2109   1.421       .  A
C2109      C2110   1.411       .  A
C2109      N2116   1.438       .  S
C2110      H2115   1.084       .  S
C2110      C2111   1.403       .  A
C2111      C2112   1.416       .  A
C2112      N2113   1.433       .  S
N2113      H2117   1.043       .  S
N2113      H2118   1.044       .  S
N2116      H2119   1.043       .  S
N2116      H2120   1.046       .  S
C2121      H2128   1.084       .  S
C2121      C2122   1.406       .  A
C2121      C2126   1.412       .  A
C2122      C2123   1.409       .  A
C2123      C2124   1.396       .  A
C2123      N2130   1.433       .  S
C2124      H2129   1.084       .  S
C2124      C2125   1.406       .  A
C2125      C2126   1.408       .  A
C2126      N2127   1.437       .  S
N2127      H2131   1.045       .  S
N2127      H2132   1.045       .  S
N2130      H2133   1.046       .  S
N2130      H2134   1.045       .  S
C2135      H2142   1.078       .  S
C2135      C2136   1.403       .  A
C2135      C2140   1.414       .  A
C2136      C2137   1.411       .  A
C2137      C2138   1.400       .  A
C2137      N2144   1.433       .  S
C2138      H2143   1.084       .  S
C2138      C2139   1.406       .  A
C2139      C2140   1.420       .  A
C2140      N2141   1.437       .  S
N2141      H2145   1.046       .  S
N2141      H2146   1.046       .  S
N2144      H2147   1.046       .  S
N2144      H2148   1.045       .  S
C2149      H2156   1.084       .  S
C2149      C2150   1.407       .  A
C2149      C2154   1.401       .  A
C2150      C2151   1.413       .  A
C2151      C2152   1.411       .  A
C2151      N2158   1.431       .  S
C2152      H2157   1.084       .  S
C2152      C2153   1.405       .  A
C2153      C2154   1.411       .  A
C2154      N2155   1.439       .  S
N2155      H2159   1.046       .  S
N2155      H2160   1.046       .  S
N2158      H2161   1.045       .  S
N2158      H2162   1.045       .  S
C2163      H2170   1.081       .  S
C2163      C2164   1.414       .  A
C2163      C2168   1.400       .  A
C2164      C2165   1.419       .  A
C2165      C2166   1.415       .  A
C2165      N2172   1.431       .  S
C2166      H2171   1.083       .  S
C2166      C2167   1.407       .  A
C2167      C2168   1.408       .  A
C2168      N2169   1.434       .  S
N2169      H2173   1.046       .  S
N2169      H2174   1.046       .  S
N2172      H2175   1.045       .  S
N2172      H2176   1.045       .  S
C2177      H2184   1.084       .  S
C2177      C2178   1.403       .  A
C2177      C2182   1.400       .  A
C2178      C2179   1.408       .  A
C2179      C2180   1.410       .  A
C2179      N2186   1.432       .  S
C2180      H2185   1.083       .  S
C2180      C2181   1.413       .  A
C2181      C2182   1.423       .  A
C2182      N2183   1.433       .  S
N2183      H2187   1.045       .  S
N2183      H2188   1.045       .  S
N2186      H2189   1.046       .  S
N2186      H2190   1.045       .  S
C2191      H2198   1.078       .  S
C2191      C2192   1.412       .  A
C2191      C2196   1.406       .  A
C2192      C2193   1.434       .  A
C2193      C2194   1.396       .  A
C2193      N2200   1.436       .  S
C2194      H2199   1.085       .  S
C2194      C2195   1.396       .  A
C2195      C2196   1.415       .  A
C2196      N2197   1.433       .  S
N2197      H2201   1.045       .  S
N2197      H2202   1.046       .  S
N2200      H2203   1.042       .  S
N2200      H2204   1.041       .  S
C2205      H2212   1.084       .  S
C2205      C2206   1.410       .  A
C2205      C2210   1.412       .  A
C2206      C2207   1.409       .  A
C2207      C2208   1.401       .  A
C2207      N2214   1.433       .  S
C2208      H2213   1.084       .  S
C2208      C2209   1.404       .  A
C2209      C2210   1.406       .  A
C2210      N2211   1.432       .  S
N2211      H2215   1.046       .  S
N2211      H2216   1.045       .  S
N2214      H2217   1.046       .  S
N2214      H2218   1.046       .  S
C2219      H2226   1.083       .  S
C2219      C2220   1.411       .  A
C2219      C2224   1.406       .  A
C2220      C2221   1.412       .  A
C2221      C2222   1.411       .  A
C2221      N2228   1.432       .  S
C2222      H2227   1.078       .  S
C2222      C2223   1.407       .  A
C2223      C2224   1.412       .  A
C2224      N2225   1.438       .  S
N2225      H2229   1.045       .  S
N2225      H2230   1.046       .  S
N2228      H2231   1.046       .  S
N2228      H2232   1.046       .  S
C2233      H2240   1.083       .  S
C2233      C2234   1.407       .  A
C2233      C2238   1.404       .  A
C2234      C2235   1.419       .  A
C2235      C2236   1.406       .  A
C2235      N2242   1.432       .  S
C2236      H2241   1.084       .  S
C2236      C2237   1.400       .  A
C2237      C2238   1.410       .  A
C2238      N2239   1.438       .  S
N2239      H2243   1.046       .  S
N2239      H2244   1.045       .  S
N2242      H2245   1.046       .  S
N2242      H2246   1.046       .  S
C2247      H2254   1.084       .  S
C2247      C2248   1.404       .  A
C2247      C2252   1.408       .  A
C2248      C2249   1.411       .  A
C2249      C2250   1.396       .  A
C2249      N2256   1.435       .  S
C2250      H2255   1.073       .  S
C2250      C2251   1.411       .  A
C2251      C2252   1.418       .  A
C2252      N2253   1.432       .  S
N2253      H2257   1.046       .  S
N2253      H2258   1.045       .  S
N2256      H2259   1.046       .  S
N2256      H2260   1.046       .  S
C2261      H2268   1.084       .  S
C2261      C2262   1.404       .  A
C2261      C2266   1.409       .  A
C2262      C2263   1.408       .  A
C2263      C2264   1.402       .  A
C2263      N2270   1.439       .  S
C2264      H2269   1.077       .  S
C2264      C2265   1.412       .  A
C2265      C2266   1.420       .  A
C2266      N2267   1.438       .  S
N2267      H2271   1.046       .  S
N2267      H2272   1.045       .  S
N2270      H2273   1.046       .  S
N2270      H2274   1.045       .  S
C2275      H2282   1.084       .  S
C2275      C2276   1.408       .  A
C2275      C2280   1.406       .  A
C2276      C2277   1.409       .  A
C2277      C2278   1.397       .  A
C2277      N2284   1.433       .  S
C2278      H2283   1.084       .  S
C2278      C2279   1.406       .  A
C2279      C2280   1.410       .  A
C2280      N2281   1.432       .  S
N2281      H2285   1.045       .  S
N2281      H2286   1.046   1_565  S
N2284      H2287   1.046       .  S
N2284      H2288   1.045       .  S
C2289      H2296   1.084       .  S
C2289      C2290   1.400       .  A
C2289      C2294   1.406       .  A
C2290      C2291   1.416   1_565  A
C2291      C2292   1.402       .  A
C2291      N2298   1.439       .  S
C2292      H2297   1.084       .  S
C2292      C2293   1.406   1_545  A
C2293      C2294   1.419       .  A
C2294      N2295   1.433       .  S
N2295      H2299   1.046       .  S
N2295      H2300   1.046       .  S
N2298      H2301   1.044       .  S
N2298      H2302   1.046       .  S
C2303      H2310   1.083       .  S
C2303      C2304   1.412       .  A
C2303      C2308   1.393       .  A
C2304      C2305   1.418       .  A
C2305      C2306   1.417       .  A
C2305      N2312   1.436       .  S
C2306      H2311   1.083       .  S
C2306      C2307   1.411       .  A
C2307      C2308   1.415       .  A
C2308      N2309   1.434       .  S
N2309      H2313   1.045       .  S
N2309      H2314   1.045       .  S
N2312      H2315   1.046       .  S
N2312      H2316   1.045       .  S
C2317      H2324   1.084       .  S
C2317      C2318   1.402       .  A
C2317      C2322   1.404       .  A
C2318      C2319   1.416       .  A
C2319      C2320   1.403       .  A
C2319      N2326   1.439       .  S
C2320      H2325   1.084       .  S
C2320      C2321   1.408       .  A
C2321      C2322   1.415       .  A
C2322      N2323   1.433       .  S
N2323      H2327   1.045       .  S
N2323      H2328   1.046       .  S
N2326      H2329   1.043       .  S
N2326      H2330   1.046       .  S
C2331      H2338   1.084       .  S
C2331      C2332   1.407       .  A
C2331      C2336   1.407       .  A
C2332      C2333   1.408       .  A
C2333      C2334   1.405       .  A
C2333      N2340   1.432       .  S
C2334      H2339   1.079       .  S
C2334      C2335   1.402       .  A
C2335      C2336   1.415       .  A
C2336      N2337   1.433       .  S
N2337      H2341   1.045       .  S
N2337      H2342   1.045       .  S
N2340      H2343   1.046       .  S
N2340      H2344   1.045       .  S
C2345      H2352   1.084       .  S
C2345      C2346   1.403       .  A
C2345      C2350   1.404       .  A
C2346      C2347   1.412       .  A
C2347      C2348   1.403       .  A
C2347      N2354   1.439       .  S
C2348      H2353   1.080       .  S
C2348      C2349   1.409       .  A
C2349      C2350   1.421       .  A
C2350      N2351   1.432       .  S
N2351      H2355   1.042       .  S
N2351      H2356   1.045       .  S
N2354      H2357   1.043       .  S
N2354      H2358   1.046       .  S
C2359      H2366   1.084       .  S
C2359      C2360   1.406       .  A
C2359      C2364   1.400       .  A
C2360      C2361   1.420       .  A
C2361      C2362   1.416       .  A
C2361      N2368   1.437       .  S
C2362      H2367   1.083       .  S
C2362      C2363   1.405       .  A
C2363      C2364   1.410       .  A
C2364      N2365   1.431       .  S
N2365      H2369   1.046       .  S
N2365      H2370   1.046       .  S
N2368      H2371   1.046       .  S
N2368      H2372   1.046       .  S
C2373      H2380   1.083       .  S
C2373      C2374   1.407       .  A
C2373      C2378   1.407       .  A
C2374      C2375   1.421       .  A
C2375      C2376   1.405       .  A
C2375      N2382   1.433       .  S
C2376      H2381   1.084       .  S
C2376      C2377   1.397       .  A
C2377      C2378   1.413       .  A
C2378      N2379   1.438       .  S
N2379      H2383   1.046       .  S
N2379      H2384   1.045       .  S
N2382      H2385   1.046       .  S
N2382      H2386   1.046       .  S
C2387      H2394   1.084       .  S
C2387      C2388   1.401       .  A
C2387      C2392   1.401       .  A
C2388      C2389   1.413       .  A
C2389      C2390   1.415       .  A
C2389      N2396   1.437       .  S
C2390      H2395   1.079       .  S
C2390      C2391   1.405       .  A
C2391      C2392   1.412       .  A
C2392      N2393   1.438       .  S
N2393      H2397   1.046       .  S
N2393      H2398   1.045       .  S
N2396      H2399   1.045       .  S
N2396      H2400   1.046       .  S
