geometry optimzed in LAMMPS
_audit_creation_date              2020-11-30 
_audit_creation_method            'lammps2cif' 
_symmetry_space_group_name_H-M    'P1' 
_symmetry_Int_Tables_number       1 
_symmetry_cell_setting            triclinic 
loop_ 
_symmetry_equiv_pos_as_xyz 
  x,y,z 
_cell_length_a                    25.54450687 
_cell_length_b                    25.38799186935781 
_cell_length_c                    25.670617377409062 
_cell_angle_alpha                 91.50123469396381 
_cell_angle_beta                  91.15366117732437 
_cell_angle_gamma                 88.53327331776869 
loop_ 
_atom_site_label 
_atom_site_type_symbol 
_atom_site_fract_x 
_atom_site_fract_y 
_atom_site_fract_z 
_atom_site_charge 
C1          C  0.50018780  0.55544049  0.90245708     0.80900
N2          N  0.45264180  0.57097557  0.92058205    -0.77400
C3          C  0.44755331  0.60248832  0.96394750     0.83300
N4          N  0.49155492  0.61615797  0.99162519    -0.77400
C5          C  0.53989147  0.60381100  0.97236183     0.83400
N6          N  0.54324141  0.57384518  0.92785683    -0.79100
C7          C  0.52098744  0.34339579  0.90541444     0.80900
N8          N  0.56697188  0.33055779  0.92966587    -0.77400
C9          C  0.56880619  0.30485310  0.97548918     0.83300
N10         N  0.52316938  0.29312686  0.99828997    -0.77400
C11         C  0.47669963  0.30204362  0.97284448     0.83400
N12         N  0.47629229  0.32708255  0.92673198    -0.79100
C13         C  0.59198424  0.06580493  0.50157221     0.80900
N14         N  0.61007803  0.04720950  0.54764650    -0.77400
C15         C  0.63968385  0.00212132  0.55054548     0.83300
N16         N  0.65103462  0.97457760  0.50570496    -0.77400
C17         C  0.63729502  0.99496462  0.45862042     0.83400
N18         N  0.60682710  0.03967882  0.45729022    -0.79100
C19         C  0.38131181  0.07710830  0.48095222     0.80900
N20         N  0.36724956  0.06248650  0.43171809    -0.77400
C21         C  0.34052333  0.01791908  0.42089877     0.83300
N22         N  0.32837264  0.98643572  0.46097717    -0.77400
C23         C  0.33748950  0.00285473  0.51143503     0.83400
N24         N  0.36453443  0.04776393  0.52051392    -0.79100
O25         O  0.69918766  0.86986442  0.00199417    -0.72300
O26         O  0.71016981  0.03013442  0.00850550    -0.73300
O27         O  0.70487397  0.94851552  0.08440332    -0.61900
O28         O  0.70634010  0.95035284  0.92754497    -0.70300
O29         O  0.61946414  0.95709283  0.92667814    -0.69900
O30         O  0.61865421  0.96134006  0.08169911    -0.61100
O31         O  0.62351876  0.03756867  0.00271313    -0.73600
O32         O  0.61281042  0.88031822  0.00384802    -0.72400
Cu33       Cu  0.70838754  0.94944542  0.00581630     1.04600
Cu34       Cu  0.61579919  0.95926083  0.00378009     1.04300
C35         C  0.65352509  0.85008374  0.00189559     0.93900
C36         C  0.66822071  0.05884271  0.00498759     0.93000
C37         C  0.66138001  0.95501228  0.10778289     0.85200
C38         C  0.66273033  0.95419261  0.90260933     0.91500
N39         N  0.66558087  0.95913820  0.37055026    -0.02800
C40         C  0.63661513  0.94003392  0.32950832    -0.00200
C41         C  0.58737904  0.92703634  0.34541912    -0.23100
C42         C  0.58525442  0.93965181  0.39754468    -0.23300
C43         C  0.63314999  0.96020942  0.41196526    -0.00300
H44         H  0.55495520  0.91437095  0.32076039     0.13400
H45         H  0.55056105  0.93938328  0.42107831     0.13500
N46         N  0.65800778  0.28614609  0.01787134    -0.02800
C47         C  0.69466776  0.32080675  0.03567499    -0.00200
C48         C  0.67343931  0.37119167  0.04078633    -0.23100
C49         C  0.62278791  0.36867797  0.02359291    -0.23300
C50         C  0.61446884  0.31686633  0.00864975    -0.00300
H51         H  0.69392632  0.40681426  0.05140868     0.13400
H52         H  0.59603951  0.40196923  0.01818798     0.13500
O53         O  0.91721771  0.98313667  0.69975350    -0.72300
O54         O  0.07897954  0.98438127  0.68886585    -0.73300
O55         O  0.99447455  0.06041643  0.69687800    -0.61900
O56         O  0.00104674  0.90529654  0.69793251    -0.70300
O57         O  0.98978021  0.90089541  0.61189333    -0.69900
O58         O  0.98850407  0.05942097  0.61043076    -0.61100
O59         O  0.06734957  0.97905724  0.60331105    -0.73600
O60         O  0.91333020  0.98182890  0.61344487    -0.72400
Cu61       Cu  0.99856063  0.98333129  0.69903478     1.04600
Cu62       Cu  0.98994473  0.98016179  0.60691764     1.04300
C63         C  0.89021160  0.98258862  0.65685037     0.93900
C64         C  0.09816105  0.98201842  0.64285586     0.93000
C65         C  0.98825541  0.08449485  0.65434641     0.85200
C66         C  0.99407911  0.87848528  0.65594260     0.91500
N67         N  0.95716017  0.34083670  0.70161745    -0.02800
C68         C  0.93967802  0.30594548  0.66463812    -0.00200
C69         C  0.92217856  0.33199127  0.62070011    -0.23100
C70         C  0.93056978  0.38438066  0.63013017    -0.23300
C71         C  0.95298269  0.38858079  0.67940572    -0.00300
H72         H  0.90944188  0.31426850  0.58392925     0.13400
H73         H  0.92724272  0.41501873  0.60160367     0.13500
N74         N  0.31909149  0.96130480  0.59807536    -0.02800
C75         C  0.35396672  0.93788693  0.63193497    -0.00200
C76         C  0.39952549  0.92281973  0.60701427    -0.23100
C77         C  0.39403855  0.93878144  0.55680086    -0.23300
C78         C  0.34533951  0.96333963  0.55225218    -0.00300
H79         H  0.43491642  0.90650481  0.62483301     0.13400
H80         H  0.42480505  0.93829456  0.52836269     0.13500
O81         O  0.30896032  0.95710431  0.87957185    -0.72300
O82         O  0.30314977  0.97270046  0.03483837    -0.73300
O83         O  0.31385685  0.04540660  0.95317756    -0.61900
O84         O  0.30239420  0.88549835  0.96263401    -0.70300
O85         O  0.38919019  0.87829609  0.96136511    -0.69900
O86         O  0.39978790  0.03423512  0.96235266    -0.61100
O87         O  0.38908173  0.95809331  0.04055815    -0.73600
O88         O  0.39585783  0.95345370  0.88302838    -0.72400
Cu89       Cu  0.30397946  0.96560159  0.95708049     1.04600
Cu90       Cu  0.39644532  0.95594938  0.96183996     1.04300
C91         C  0.35275662  0.95241567  0.85671152     0.93900
C92         C  0.34473549  0.96598383  0.06236266     0.93000
C93         C  0.35955392  0.06484212  0.95909410     0.85200
C94         C  0.34469206  0.85713300  0.96337325     0.91500
O95         O  0.07161942  0.00168227  0.37578767    -0.72300
O96         O  0.91540198  0.99637757  0.39084620    -0.73300
O97         O  0.99644805  0.92015410  0.38248492    -0.61900
O98         O  0.98877119  0.07768896  0.38305838    -0.70300
O99         O  0.97893339  0.07669865  0.29705120    -0.69900
O100        O  0.98661844  0.91741426  0.29629920    -0.61100
O101        O  0.90447387  0.99561883  0.30490333    -0.73600
O102        O  0.06227346  0.99802071  0.28964879    -0.72400
Cu103      Cu  0.99358594  0.99911632  0.38589569     1.04600
Cu104      Cu  0.98287698  0.99695247  0.29386019     1.04300
C105        C  0.09172324  0.00024286  0.33058141     0.93900
C106        C  0.88524848  0.99484637  0.35056148     0.93000
C107        C  0.99130250  0.89390205  0.33960441     0.85200
C108        C  0.98197026  0.10228143  0.34052911     0.91500
O109        O  0.01686445  0.27639553  0.94487695    -0.72300
O110        O  0.02627487  0.29039606  0.10551236    -0.73300
O111        O  0.94494204  0.27981148  0.02801854    -0.61900
O112        O  0.09939203  0.28169213  0.02296220    -0.70300
O113        O  0.09723332  0.36866254  0.01630411    -0.69900
O114        O  0.93991377  0.36731213  0.02686557    -0.61100
O115        O  0.02445815  0.37712645  0.09804104    -0.73600
O116        O  0.01152808  0.36363951  0.94424340    -0.72400
Cu117      Cu  0.02225828  0.27891019  0.02549137     1.04600
Cu118      Cu  0.01841764  0.37209186  0.02106442     1.04300
C119        C  0.01024520  0.31931785  0.91985187     0.93900
C120        C  0.02595379  0.33690444  0.12668415     0.93000
C121        C  0.91803021  0.32263707  0.02898053     0.85200
C122        C  0.12304075  0.32484176  0.01893795     0.91500
N123        N  0.98418573  0.36709402  0.34356797    -0.02800
C124        C  0.95726804  0.32837335  0.36619461    -0.00200
C125        C  0.93426430  0.34732096  0.41135674    -0.23100
C126        C  0.94862979  0.39867548  0.41787982    -0.23300
C127        C  0.98035154  0.40979838  0.37672453    -0.00300
H128        H  0.91415331  0.32455047  0.43949654     0.13400
H129        H  0.94276835  0.42285124  0.45275780     0.13500
N130        N  0.31748736  0.98961205  0.32651089    -0.02800
C131        C  0.34935748  0.97434338  0.28627145    -0.00200
C132        C  0.40087696  0.96983069  0.30342986    -0.23100
C133        C  0.40159638  0.98276880  0.35520840    -0.23300
C134        C  0.35058354  0.99484694  0.36872134    -0.00300
H135        H  0.43483102  0.96009917  0.28015991     0.13400
H136        H  0.43615145  0.98526606  0.38021993     0.13500
N137        N  0.38472201  0.28732787  0.00098241    -0.02800
C138        C  0.34800055  0.32241862  0.01963086    -0.00200
C139        C  0.37072292  0.36920609  0.03527006    -0.23100
C140        C  0.42281844  0.36360885  0.02528898    -0.23300
C141        C  0.43029209  0.31367102  0.00380729    -0.00300
H142        H  0.35084721  0.40480585  0.04936808     0.13400
H143        H  0.45136972  0.39438055  0.02863047     0.13500
O144        O  0.00027174  0.57763865  0.10784492    -0.72300
O145        O  0.00204427  0.58583594  0.95098896    -0.73300
O146        O  0.07788224  0.58950237  0.03333962    -0.61900
O147        O  0.92208811  0.57506551  0.02641556    -0.70300
O148        O  0.91172512  0.66184080  0.03489332    -0.69900
O149        O  0.06800606  0.67675031  0.03598881    -0.61100
O150        O  0.98838121  0.67236284  0.95608307    -0.73600
O151        O  0.99092710  0.66471714  0.11402585    -0.72400
Cu152      Cu  0.00079266  0.57903990  0.02933679     1.04600
Cu153      Cu  0.98939139  0.67200893  0.03542777     1.04300
C154        C  0.99611233  0.61992969  0.13567098     0.93900
C155        C  0.99563446  0.63003272  0.92860897     0.93000
C156        C  0.09739187  0.63529735  0.03576505     0.85200
C157        C  0.89217871  0.61612466  0.03040444     0.91500
N158        N  0.01375268  0.62792657  0.35933424    -0.02800
C159        C  0.00642473  0.67595783  0.38386128    -0.00200
C160        C  0.01749969  0.67326896  0.43644881    -0.23100
C161        C  0.03222010  0.62249432  0.44550619    -0.23300
C162        C  0.02993161  0.59494319  0.39820609    -0.00300
H163        H  0.01634785  0.70532260  0.46508185     0.13400
H164        H  0.04366639  0.60717986  0.48315218     0.13500
N165        N  0.35803701  0.63454974  0.99786473    -0.02800
C166        C  0.31806729  0.60731414  0.01798076    -0.00200
C167        C  0.33263223  0.55509313  0.02437308    -0.23100
C168        C  0.38264324  0.54920552  0.00701471    -0.23300
C169        C  0.39753590  0.59796959  0.99078745    -0.00300
H170        H  0.30856543  0.52400703  0.03804133     0.13400
H171        H  0.40532745  0.51262117  0.00463914     0.13500
N172        N  0.97518178  0.62010607  0.70378614    -0.02800
C173        C  0.96170198  0.65662210  0.66728337    -0.00200
C174        C  0.95151758  0.63262392  0.61931063    -0.23100
C175        C  0.95932874  0.57999460  0.62535348    -0.23300
C176        C  0.97448977  0.57322091  0.67661423    -0.00300
H177        H  0.94359166  0.65162061  0.58263857     0.13400
H178        H  0.95876231  0.55007940  0.59449229     0.13500
N179        N  0.66502334  0.97340952  0.64183069    -0.02800
C180        C  0.63437132  0.95784856  0.68102882    -0.00200
C181        C  0.58445421  0.94710670  0.66280547    -0.23100
C182        C  0.58348978  0.95719857  0.61088929    -0.23300
C183        C  0.63283270  0.97368650  0.59888929    -0.00300
H184        H  0.55147444  0.93587999  0.68552023     0.13400
H185        H  0.54925000  0.95664000  0.58532050     0.13500
N186        N  0.62827008  0.62591777  0.01271452    -0.02800
C187        C  0.66744201  0.59282511  0.03000863    -0.00200
C188        C  0.64830775  0.54347094  0.03860237    -0.23100
C189        C  0.59630404  0.54543345  0.02514222    -0.23300
C190        C  0.58495546  0.59579536  0.00828331    -0.00300
H191        H  0.67070689  0.50864712  0.04973856     0.13400
H192        H  0.57081587  0.51199725  0.02227730     0.13500
C193        C  0.06636188  0.46534578  0.65869296     0.80900
N194        N  0.03699909  0.42409025  0.67143369    -0.84000
C195        C  0.98854850  0.43142723  0.69160712     0.83300
N196        N  0.96875204  0.48122375  0.69857290    -0.77400
C197        C  0.99943005  0.52309645  0.69073705     0.83400
N198        N  0.04757234  0.51455270  0.67023481    -0.79100
C199        C  0.08609553  0.47259907  0.44916546     0.80900
N200        N  0.05694742  0.43588340  0.42384973    -0.77400
C201        C  0.02154411  0.44885975  0.38565061     0.83300
N202        N  0.01346173  0.50078350  0.37388567    -0.77400
C203        C  0.04473154  0.53800961  0.39684933     0.83400
N204        N  0.08020626  0.52311572  0.43427631    -0.79100
C205        C  0.10112334  0.45865867  0.61259381    -0.04800
C206        C  0.09765872  0.41208054  0.58177350    -0.32200
C207        C  0.10000793  0.41368865  0.52718518     0.37000
C208        C  0.10775433  0.46217756  0.50285877    -0.05200
C209        C  0.12409343  0.50503172  0.53473368    -0.32100
C210        C  0.12145582  0.50331752  0.58921188     0.36900
H211        H  0.08554027  0.37586893  0.59883810     0.17300
O212        O  0.08990102  0.36879341  0.49816904    -0.59600
H213        H  0.13326007  0.54214074  0.51759077     0.17300
O214        O  0.13150082  0.54814434  0.61830220    -0.59700
H215        H  0.16762298  0.54275414  0.63240370     0.44300
H216        H  0.05174399  0.36295316  0.50171977     0.44200
C217        C  0.26374129  0.62680870  0.02770487    -0.04800
C218        C  0.23867777  0.60944688  0.07212600    -0.32200
C219        C  0.18436760  0.61461117  0.07655469     0.37000
C220        C  0.15451948  0.63939731  0.03728725    -0.05200
C221        C  0.17965090  0.66093610  0.99512849    -0.32100
C222        C  0.23376734  0.65361481  0.98935171     0.36900
H223        H  0.26091402  0.58867912  0.10193533     0.17300
O224        O  0.16052096  0.59395114  0.11859810    -0.59600
H225        H  0.15670870  0.67935474  0.96430782     0.17300
O226        O  0.25579017  0.66870717  0.94402075    -0.59700
H227        H  0.25455210  0.63718841  0.92033140     0.44300
H228        H  0.15683237  0.55591357  0.10979770     0.44200
C229        C  0.99781974  0.61704739  0.19331145    -0.04800
C230        C  0.03908555  0.58959569  0.21862579    -0.32200
C231        C  0.04387062  0.59047052  0.27345663     0.37000
C232        C  0.00593373  0.61764836  0.30386047    -0.05200
C233        C  0.96271591  0.64162779  0.27808819    -0.32100
C234        C  0.95936766  0.64294434  0.22360018     0.36900
H235        H  0.06923845  0.56973233  0.19578033     0.17300
O236        O  0.08787782  0.56866855  0.29649827    -0.59600
H237        H  0.93246639  0.66176288  0.30051417     0.17300
O238        O  0.91810181  0.66943569  0.20027353    -0.59700
H239        H  0.92855549  0.70684016  0.20012191     0.44300
H240        H  0.08489819  0.53000068  0.29082931     0.44200
C241        C  0.83456839  0.61088811  0.03004840    -0.04800
C242        C  0.80307345  0.64709458  0.05878537    -0.32200
C243        C  0.74832182  0.64241792  0.05941773     0.37000
C244        C  0.72448426  0.60196442  0.02992318    -0.05200
C245        C  0.75602338  0.56603297  0.00118477    -0.32100
C246        C  0.81045937  0.56971809  0.00162323     0.36900
H247        H  0.82107220  0.67825509  0.08194841     0.17300
O248        O  0.71890412  0.67525190  0.09121625    -0.59600
H249        H  0.73824677  0.53444246  0.97838421     0.17300
O250        O  0.83953494  0.53382239  0.97275722    -0.59700
H251        H  0.84259248  0.50193666  0.99431395     0.44300
H252        H  0.72159452  0.71089835  0.07685593     0.44200
C253        C  0.98652430  0.62853146  0.75935476    -0.04800
C254        C  0.02375307  0.59651274  0.78576369    -0.32200
C255        C  0.02752060  0.59698642  0.84049200     0.37000
C256        C  0.99559029  0.63173546  0.87052155    -0.05200
C257        C  0.96140943  0.66668460  0.84438708    -0.32100
C258        C  0.95562003  0.66433699  0.78978607     0.36900
H259        H  0.04971207  0.57013396  0.76430679     0.17300
O260        O  0.06210632  0.56254705  0.86419098    -0.59600
H261        H  0.93647480  0.69376371  0.86656224     0.17300
O262        O  0.91722598  0.69520764  0.76708900    -0.59700
H263        H  0.88511152  0.67415178  0.76751790     0.44300
H264        H  0.09395790  0.58310154  0.87178232     0.44200
C265        C  0.18067444  0.32313912  0.01776980    -0.04800
C266        C  0.20884890  0.28253232  0.04332766    -0.32200
C267        C  0.26374183  0.28007594  0.04314477     0.37000
C268        C  0.29075311  0.31815992  0.01657543    -0.05200
C269        C  0.26256183  0.35788329  0.99017262    -0.32100
C270        C  0.20808459  0.36095817  0.99105498     0.36900
H271        H  0.18831755  0.25338540  0.06461837     0.17300
O272        O  0.29050741  0.24255867  0.07133991    -0.59600
H273        H  0.28313654  0.38747020  0.96945543     0.17300
O274        O  0.18207301  0.40023824  0.96455535    -0.59700
H275        H  0.18316266  0.43173041  0.98830229     0.44300
H276        H  0.28576483  0.20888094  0.05143877     0.44200
C277        C  0.00852938  0.36439643  0.29291472    -0.04800
C278        C  0.03467439  0.31820997  0.27443871    -0.32200
C279        C  0.04139413  0.30836945  0.22062713     0.37000
C280        C  0.02444578  0.34620609  0.18436379    -0.05200
C281        C  0.00363500  0.39464404  0.20353648    -0.32100
C282        C  0.99516357  0.40359727  0.25673027     0.36900
H283        H  0.04761469  0.28834070  0.30139761     0.17300
O284        O  0.06429956  0.26164897  0.20403213    -0.59600
H285        H  0.99067526  0.42491312  0.17686712     0.17300
O286        O  0.96975051  0.44939084  0.27237732    -0.59700
H287        H  0.93188510  0.44139509  0.27077857     0.44300
H288        H  0.03622678  0.23540823  0.20517268     0.44200
C289        C  0.14954857  0.00000590  0.32609158    -0.04800
C290        C  0.17887407  0.03971431  0.35101149    -0.32200
C291        C  0.23404853  0.03833116  0.34983503     0.37000
C292        C  0.26081336  0.99563244  0.32484504    -0.05200
C293        C  0.23107156  0.95671946  0.29899180    -0.32100
C294        C  0.17610566  0.95891578  0.29905965     0.36900
H295        H  0.15887753  0.07230648  0.37095424     0.17300
O296        O  0.26116517  0.08027078  0.37023251    -0.59600
H297        H  0.25065537  0.92354662  0.27966788     0.17300
O298        O  0.14861001  0.91972514  0.27402698    -0.59700
H299        H  0.15569523  0.88783358  0.29477705     0.44300
H300        H  0.25177983  0.08327496  0.40764656     0.44200
C301        C  0.97758507  0.16068092  0.34289083    -0.04800
C302        C  0.99968137  0.18721039  0.38623336    -0.32200
C303        C  0.99381214  0.24161700  0.39264525     0.37000
C304        C  0.96466980  0.27107950  0.35589094    -0.05200
C305        C  0.94338766  0.24532731  0.31164796    -0.32100
C306        C  0.94986336  0.19031186  0.30484998     0.36900
H307        H  0.02165316  0.16563415  0.41566151     0.17300
O308        O  0.01636682  0.26578934  0.43565399    -0.59600
H309        H  0.92137136  0.26770142  0.28287554     0.17300
O310        O  0.92787173  0.16592696  0.26175788    -0.59700
H311        H  0.89162026  0.15803410  0.27182618     0.44300
H312        H  0.05025598  0.27872468  0.42361208     0.44200
C313        C  0.98871698  0.83605373  0.34126448    -0.04800
C314        C  0.95302770  0.81426339  0.37479849    -0.32200
C315        C  0.95438030  0.76021247  0.38384370     0.37000
C316        C  0.99273483  0.72723706  0.36020958    -0.05200
C317        C  0.02550752  0.74820844  0.32313259    -0.32100
C318        C  0.02330174  0.80244863  0.31320766     0.36900
H319        H  0.92507344  0.83954198  0.39540058     0.17300
O320        O  0.91921285  0.73990188  0.41725696    -0.59600
H321        H  0.05539160  0.72341258  0.30484327     0.17300
O322        O  0.05747275  0.82274163  0.27897755    -0.59700
H323        H  0.09167591  0.82365099  0.29824362     0.44300
H324        H  0.92962564  0.75319473  0.45256165     0.44200
C325        C  0.36700913  0.12274642  0.96558897    -0.04800
C326        C  0.33315198  0.15979270  0.94144606    -0.32200
C327        C  0.33942102  0.21456719  0.95029773     0.37000
C328        C  0.37944037  0.23264735  0.98453907    -0.05200
C329        C  0.41387467  0.19549369  0.00706256    -0.32100
C330        C  0.40836556  0.14150449  0.99775290     0.36900
H331        H  0.30202409  0.14632676  0.91550593     0.17300
O332        O  0.30811205  0.24987924  0.92372693    -0.59600
H333        H  0.44448911  0.20856936  0.03383369     0.17300
O334        O  0.44185726  0.10728595  0.02323533    -0.59700
H335        H  0.47385960  0.10505379  0.00190394     0.44300
H336        H  0.27162210  0.24246450  0.93329180     0.44200
C337        C  0.34087205  0.96578407  0.11975359    -0.04800
C338        C  0.31140462  0.00515999  0.14637421    -0.32200
C339        C  0.30960192  0.00658259  0.20119519     0.37000
C340        C  0.33594091  0.96701015  0.22989640    -0.05200
C341        C  0.36189519  0.92562039  0.20256714    -0.32100
C342        C  0.36565298  0.92554275  0.14833378     0.36900
H343        H  0.29206130  0.03644589  0.12478495     0.17300
O344        O  0.28661282  0.04933540  0.22617395    -0.59600
H345        H  0.38257659  0.89486769  0.22378160     0.17300
O346        O  0.39374568  0.88586214  0.12358328    -0.59700
H347        H  0.43086258  0.89630686  0.12680884     0.44300
H348        H  0.24835479  0.04474294  0.22137033     0.44200
C349        C  0.34370444  0.79963190  0.96945685    -0.04800
C350        C  0.36716513  0.76562200  0.93218674    -0.32200
C351        C  0.37281460  0.71120536  0.94072620     0.37000
C352        C  0.35677440  0.69056266  0.98818913    -0.05200
C353        C  0.33427339  0.72531268  0.02562675    -0.32100
C354        C  0.32660288  0.77898753  0.01608656     0.36900
H355        H  0.38070760  0.78128730  0.89611766     0.17300
O356        O  0.39072221  0.67841543  0.90135394    -0.59600
H357        H  0.32182401  0.71046427  0.06241965     0.17300
O358        O  0.30310607  0.81123286  0.05294391    -0.59700
H359        H  0.33009126  0.81652074  0.08072705     0.44300
H360        H  0.42767276  0.68801228  0.89635329     0.44200
C361        C  0.35230587  0.94022538  0.68949993    -0.04800
C362        C  0.31827330  0.90950247  0.71730988    -0.32200
C363        C  0.31819936  0.91285132  0.77206617     0.37000
C364        C  0.35321872  0.94638272  0.79937344    -0.05200
C365        C  0.38810314  0.97575614  0.77139334    -0.32100
C366        C  0.38765248  0.97310962  0.71699717     0.36900
H367        H  0.29173962  0.88330644  0.69663444     0.17300
O368        O  0.28531801  0.88171982  0.79864891    -0.59600
H369        H  0.41495286  0.00191401  0.79173401     0.17300
O370        O  0.42074095  0.00437509  0.69071500    -0.59700
H371        H  0.45532392  0.98571486  0.69187199     0.44300
H372        H  0.25124718  0.90122921  0.79902106     0.44200
C373        C  0.97351440  0.33270353  0.75525171    -0.04800
C374        C  0.94701099  0.36267919  0.79337665    -0.32200
C375        C  0.95789121  0.35666938  0.84623060     0.37000
C376        C  0.99681596  0.32022551  0.86308096    -0.05200
C377        C  0.02338102  0.28903895  0.82522970    -0.32100
C378        C  0.01236851  0.29548809  0.77137424     0.36900
H379        H  0.91660395  0.39078421  0.78179432     0.17300
O380        O  0.92974066  0.38687359  0.88145140    -0.59600
H381        H  0.05365184  0.26103569  0.83727361     0.17300
O382        O  0.04015106  0.26596477  0.73547113    -0.59700
H383        H  0.06514299  0.29058837  0.72060556     0.44300
H384        H  0.89847349  0.36607482  0.88869918     0.44200
C385        C  0.15585776  0.98206685  0.63272974    -0.04800
C386        C  0.17267975  0.96768005  0.58234873    -0.32200
C387        C  0.22575851  0.96496925  0.56981109     0.37000
C388        C  0.26473668  0.97740376  0.60760047    -0.05200
C389        C  0.24782841  0.99567466  0.65718529    -0.32100
C390        C  0.19426695  0.99670507  0.67025444     0.36900
H391        H  0.14453826  0.95626562  0.55226395     0.17300
O392        O  0.23910489  0.94522995  0.52152406    -0.59600
H393        H  0.27601550  0.00806576  0.68662679     0.17300
O394        O  0.18016577  0.01218153  0.71967244    -0.59700
H395        H  0.18348667  0.97976353  0.74045168     0.44300
H396        H  0.22726461  0.97258681  0.49661964     0.44200
C397        C  0.97711646  0.14128790  0.65719879    -0.04800
C398        C  0.94812605  0.16222343  0.69938052    -0.32200
C399        C  0.93443210  0.21587537  0.70253528     0.37000
C400        C  0.95051917  0.24896566  0.66344909    -0.05200
C401        C  0.97946674  0.22795032  0.62137958    -0.32100
C402        C  0.99239849  0.17443422  0.61779788     0.36900
H403        H  0.93492059  0.13668528  0.72936795     0.17300
O404        O  0.90352167  0.23514868  0.74218675    -0.59600
H405        H  0.99270513  0.25338607  0.59130016     0.17300
O406        O  0.02167369  0.15535690  0.57688902    -0.59700
H407        H  0.99647329  0.15139466  0.54719165     0.44300
H408        H  0.92368412  0.22861048  0.77492006     0.44200
C409        C  0.98683067  0.82167067  0.65958680    -0.04800
C410        C  0.94047888  0.80051556  0.63932881    -0.32200
C411        C  0.92984288  0.74741686  0.64558816     0.37000
C412        C  0.96631490  0.71443265  0.67193334    -0.05200
C413        C  0.01226722  0.73598829  0.69327651    -0.32100
C414        C  0.02226796  0.78958593  0.68793191     0.36900
H415        H  0.91200966  0.82545228  0.61924582     0.17300
O416        O  0.88344768  0.72796439  0.62629875    -0.59600
H417        H  0.04147992  0.71090582  0.71210711     0.17300
O418        O  0.06806427  0.80967708  0.70782724    -0.59700
H419        H  0.06372458  0.81156230  0.74612120     0.44300
H420        H  0.88533110  0.72990376  0.58785537     0.44200
C421        C  0.83187988  0.98163058  0.65481585    -0.04800
C422        C  0.80077253  0.01178738  0.68964362    -0.32200
C423        C  0.74544016  0.01285850  0.68432202     0.37000
C424        C  0.72075880  0.98281194  0.64400758    -0.05200
C425        C  0.75222722  0.95439848  0.60865402    -0.32100
C426        C  0.80671484  0.95345219  0.61368277     0.36900
H427        H  0.81931132  0.03548030  0.72012924     0.17300
O428        O  0.71608624  0.04543363  0.71649386    -0.59600
H429        H  0.73412130  0.93057371  0.57801348     0.17300
O430        O  0.83511957  0.92373917  0.57831171    -0.59700
H431        H  0.83868234  0.88829848  0.59344801     0.44300
H432        H  0.72628174  0.03611429  0.75264112     0.44200
C433        C  0.75197246  0.31166441  0.03856813    -0.04800
C434        C  0.78063228  0.33745373  0.07856440    -0.32200
C435        C  0.83483964  0.34205511  0.07544453     0.37000
C436        C  0.86120323  0.31950192  0.03264922    -0.05200
C437        C  0.83330616  0.29152343  0.99394990    -0.32100
C438        C  0.77884271  0.28821223  0.99611639     0.36900
H439        H  0.76050133  0.35629009  0.11109870     0.17300
O440        O  0.86180622  0.36805856  0.11460413    -0.59600
H441        H  0.85359977  0.27416294  0.96076196     0.17300
O442        O  0.75202011  0.26699840  0.95408859    -0.59700
H443        H  0.76048350  0.22868758  0.95423610     0.44300
H444        H  0.86225085  0.40534325  0.10390593     0.44200
C445        C  0.71935224  0.97553795  0.36992155    -0.04800
C446        C  0.73719249  0.00734363  0.33025149    -0.32200
C447        C  0.79102072  0.01388562  0.32315948     0.37000
C448        C  0.82799095  0.99041239  0.35743581    -0.05200
C449        C  0.80999034  0.96079811  0.39858369    -0.32100
C450        C  0.75638299  0.95277971  0.40458776     0.36900
H451        H  0.70946059  0.02582014  0.30360332     0.17300
O452        O  0.80702733  0.04374180  0.28296763    -0.59600
H453        H  0.83774403  0.94163627  0.42486762     0.17300
O454        O  0.74073774  0.91862366  0.44144558    -0.59700
H455        H  0.74908497  0.93599173  0.47560639     0.44300
H456        H  0.80544509  0.02008154  0.25164085     0.44200
C457        C  0.67044057  0.11717004  0.00438669    -0.04800
C458        C  0.69490206  0.14437113  0.04579722    -0.32200
C459        C  0.69132719  0.19961914  0.05005350     0.37000
C460        C  0.66450251  0.22921864  0.01131673    -0.05200
C461        C  0.64162566  0.20170883  0.96868773    -0.32100
C462        C  0.64383982  0.14627918  0.96546598     0.36900
H463        H  0.71432524  0.12256235  0.07668701     0.17300
O464        O  0.71020792  0.22405913  0.09461875    -0.59600
H465        H  0.62168292  0.22293737  0.93786859     0.17300
O466        O  0.61906848  0.12084239  0.92450269    -0.59700
H467        H  0.64635579  0.11482913  0.89788600     0.44300
H468        H  0.74869183  0.21744324  0.09471805     0.44200
C469        C  0.65963505  0.95449211  0.16533066    -0.04800
C470        C  0.69268501  0.91996291  0.19379432    -0.32200
C471        C  0.68697360  0.91514396  0.24787659     0.37000
C472        C  0.64828101  0.94549279  0.27379770    -0.05200
C473        C  0.61703694  0.98145426  0.24568911    -0.32100
C474        C  0.62223881  0.98598709  0.19205104     0.36900
H475        H  0.72141134  0.89515679  0.17378323     0.17300
O476        O  0.71709461  0.87880934  0.27433274    -0.59600
H477        H  0.58767223  0.00572093  0.26548321     0.17300
O478        O  0.59109455  0.02201040  0.16617285    -0.59700
H479        H  0.55641320  0.00547485  0.16203885     0.44300
H480        H  0.75080137  0.89619309  0.28186791     0.44200
C481        C  0.66108230  0.95735366  0.84562576    -0.04800
C482        C  0.62323150  0.99110799  0.82340446    -0.32200
C483        C  0.61608060  0.99242727  0.76971033     0.37000
C484        C  0.64714138  0.95965444  0.73706348    -0.05200
C485        C  0.68667263  0.92726278  0.75878574    -0.32100
C486        C  0.69409975  0.92629584  0.81312190     0.36900
H487        H  0.59846912  0.01621739  0.84788499     0.17300
O488        O  0.57892523  0.02645725  0.74918248    -0.59600
H489        H  0.71058597  0.90185467  0.73382961     0.17300
O490        O  0.73111086  0.89253626  0.83405468    -0.59700
H491        H  0.76442116  0.91175630  0.83344476     0.44300
H492        H  0.54471589  0.01031658  0.75555838     0.44200
C493        C  0.63121698  0.68160881  0.00260879    -0.04800
C494        C  0.67214022  0.70190475  0.97382448    -0.32200
C495        C  0.67996807  0.75665263  0.97270989     0.37000
C496        C  0.64661702  0.79200896  0.00059545    -0.05200
C497        C  0.60466208  0.77161089  0.02741452    -0.32100
C498        C  0.59690402  0.71726977  0.02861807     0.36900
H499        H  0.69878093  0.67524391  0.95327413     0.17300
O500        O  0.72030130  0.77503740  0.94440732    -0.59600
H501        H  0.57856236  0.79787916  0.04919641     0.17300
O502        O  0.55824527  0.69896421  0.05920902    -0.59700
H503        H  0.52478731  0.70924437  0.04149074     0.44300
H504        H  0.70413719  0.78511802  0.91048416     0.44200
C505        C  0.54182472  0.09786679  0.50033520    -0.04800
C506        C  0.51854757  0.10996083  0.45181243    -0.32200
C507        C  0.46392299  0.11491563  0.44596173     0.37000
C508        C  0.43157693  0.10578208  0.48887321    -0.05200
C509        C  0.45523692  0.10694629  0.53880110    -0.32100
C510        C  0.50996410  0.10279686  0.54487745     0.36900
H511        H  0.54207571  0.10954601  0.41714561     0.17300
O512        O  0.44301761  0.12093184  0.39677028    -0.59600
H513        H  0.43151258  0.10368173  0.57303321     0.17300
O514        O  0.53111368  0.09812499  0.59417795    -0.59700
H515        H  0.52085921  0.06291600  0.60595401     0.44300
H516        H  0.42766193  0.15723128  0.39677168     0.44200
C517        C  0.50549574  0.50374525  0.87306947    -0.04800
C518        C  0.55558176  0.47962839  0.86889936    -0.32200
C519        C  0.56203702  0.42450955  0.86983177     0.37000
C520        C  0.51775949  0.39267890  0.87431636    -0.05200
C521        C  0.46810987  0.41642598  0.86478359    -0.32100
C522        C  0.46169382  0.47147834  0.86415814     0.36900
H523        H  0.59028201  0.50326220  0.87194847     0.17300
O524        O  0.61182009  0.40280249  0.87176202    -0.59600
H525        H  0.43326181  0.39298141  0.86479851     0.17300
O526        O  0.41181157  0.49272170  0.86214046    -0.59700
H527        H  0.40813372  0.50835922  0.82721084     0.44300
H528        H  0.62674144  0.41357427  0.90630267     0.44200
loop_ 
_geom_bond_atom_site_label_1 
_geom_bond_atom_site_label_2 
_geom_bond_distance 
_geom_bond_site_symmetry_2 
_ccdc_geom_bond_type 
C1            N2   1.355       .  A
C1            N6   1.354       .  A
C1          C517   1.501       .  S
N2            C3   1.360       .  A
C3            N4   1.365       .  A
C3          C169   1.472       .  S
N4            C5   1.365       .  A
C5            N6   1.359       .  A
C5          C190   1.474   1_556  S
C7            N8   1.355       .  A
C7           N12   1.355       .  A
C7          C520   1.501       .  S
N8            C9   1.359       .  A
C9           N10   1.358       .  A
C9           C50   1.464   1_556  S
N10          C11   1.360       .  A
C11          N12   1.358       .  A
C11         C141   1.460   1_556  S
C13          N14   1.353       .  A
C13          N18   1.357       .  A
C13         C505   1.501       .  S
N14          C15   1.359       .  A
C15          N16   1.363   1_545  A
C15         C183   1.468   1_545  S
N16          C17   1.363       .  A
C17          N18   1.361   1_565  A
C17          C43   1.473       .  S
C19          N20   1.352       .  A
C19          N24   1.358       .  A
C19         C508   1.500       .  S
N20          C21   1.356       .  A
C21          N22   1.365   1_545  A
C21         C134   1.473   1_545  S
N22          C23   1.368   1_565  A
C23          N24   1.361       .  A
C23          C78   1.477   1_545  S
O25         Cu33   2.040       .  S
O25          C35   1.282       .  A
O26         Cu33   2.050   1_545  S
O26          C36   1.283       .  A
O27         Cu33   2.022       .  S
O27          C37   1.278       .  A
O28         Cu33   2.010   1_556  S
O28          C38   1.276       .  A
O29         Cu34   1.983   1_556  S
O29          C38   1.277       .  A
O30         Cu34   1.999       .  S
O30          C37   1.278       .  A
O31         Cu34   2.004   1_545  S
O31          C36   1.275       .  A
O32         Cu34   2.008       .  S
O32          C35   1.278       .  A
Cu33        Cu34   2.372       .  S
C35         C496   1.489       .  S
C36         C457   1.484       .  S
C37         C469   1.479       .  S
C38         C481   1.467       .  S
N39          C43   1.360       .  A
N39          C40   1.361       .  A
N39         C445   1.446       .  S
C40         C472   1.477       .  S
C40          C41   1.381       .  A
C41          C42   1.370       .  A
C41          H44   1.083       .  S
C42          C43   1.382       .  A
C42          H45   1.083       .  S
N46          C50   1.362       .  A
N46          C47   1.365       .  A
N46         C460   1.456       .  S
C47         C433   1.477       .  S
C47          C48   1.381       .  A
C48          C49   1.361       .  A
C48          H51   1.082       .  S
C49          C50   1.381       .  A
C49          H52   1.083       .  S
O53         Cu61   2.078       .  S
O53          C63   1.288       .  A
O54         Cu61   2.077   1_455  S
O54          C64   1.287       .  A
O55         Cu61   1.959   1_545  S
O55          C65   1.270       .  A
O56         Cu61   1.980   1_455  S
O56          C66   1.272   1_455  A
O57         Cu62   2.020       .  S
O57          C66   1.281       .  A
O58         Cu62   2.011   1_545  S
O58          C65   1.280       .  A
O59         Cu62   1.981   1_455  S
O59          C64   1.274       .  A
O60         Cu62   1.967       .  S
O60          C63   1.271       .  A
Cu61        Cu62   2.370       .  S
C63         C421   1.491       .  S
C64         C385   1.502       .  S
C65         C397   1.463       .  S
C66         C409   1.465       .  S
N67          C71   1.354       .  A
N67          C68   1.358       .  A
N67         C373   1.449       .  S
C68         C400   1.466       .  S
C68          C69   1.383       .  A
C69          C70   1.367       .  A
C69          H72   1.083       .  S
C70          C71   1.381       .  A
C70          H73   1.083       .  S
C71         C195   1.459       .  S
N74          C78   1.368       .  A
N74          C75   1.368       .  A
N74         C388   1.461       .  S
C75         C361   1.479       .  S
C75          C76   1.380       .  A
C76          C77   1.365       .  A
C76          H79   1.083       .  S
C77          C78   1.381       .  A
C77          H80   1.083       .  S
O81         Cu89   2.002       .  S
O81          C91   1.275       .  A
O82         Cu89   2.000   1_554  S
O82          C92   1.274       .  A
O83         Cu89   2.053   1_545  S
O83          C93   1.284       .  A
O84         Cu89   2.044       .  S
O84          C94   1.283       .  A
O85         Cu90   1.985       .  S
O85          C94   1.272       .  A
O86         Cu90   1.991   1_545  S
O86          C93   1.275       .  A
O87         Cu90   2.032   1_554  S
O87          C92   1.282       .  A
O88         Cu90   2.022       .  S
O88          C91   1.281       .  A
Cu89        Cu90   2.369       .  S
C91         C364   1.476       .  S
C92         C337   1.479       .  S
C93         C325   1.492       .  S
C94         C349   1.473       .  S
O95        Cu103   2.018   1_445  S
O95         C105   1.278       .  A
O96        Cu103   2.007       .  S
O96         C106   1.277       .  A
O97        Cu103   2.004       .  S
O97         C107   1.278       .  A
O98        Cu103   1.999   1_545  S
O98         C108   1.278       .  A
O99        Cu104   2.024   1_545  S
O99         C108   1.279       .  A
O100       Cu104   2.022       .  S
O100        C107   1.278       .  A
O101       Cu104   2.030       .  S
O101        C106   1.281       .  A
O102       Cu104   2.034   1_455  S
O102        C105   1.281   1_565  A
Cu103      Cu104   2.372       .  S
C105        C289   1.484       .  S
C106        C448   1.484       .  S
C107        C313   1.474       .  S
C108        C301   1.484       .  S
O109       Cu117   2.071   1_556  S
O109        C119   1.285       .  A
O110       Cu117   2.068       .  S
O110        C120   1.287       .  A
O111       Cu117   1.977   1_655  S
O111        C121   1.271       .  A
O112       Cu117   1.976       .  S
O112        C122   1.272       .  A
O113       Cu118   2.019       .  S
O113        C122   1.281       .  A
O114       Cu118   2.021   1_655  S
O114        C121   1.280       .  A
O115       Cu118   1.980       .  S
O115        C120   1.273       .  A
O116       Cu118   1.983   1_556  S
O116        C119   1.274       .  A
Cu117      Cu118   2.371       .  S
C119        C376   1.491   1_455  S
C120        C280   1.494       .  S
C121        C436   1.461       .  S
C122        C265   1.473       .  S
N123        C127   1.363       .  A
N123        C124   1.363       .  A
N123        C277   1.452   1_655  S
C124        C304   1.480       .  S
C124        C125   1.380       .  A
C125        C126   1.369       .  A
C125        H128   1.083       .  S
C126        C127   1.384       .  A
C126        H129   1.083       .  S
C127        C201   1.475   1_655  S
N130        C134   1.367       .  A
N130        C131   1.370       .  A
N130        C292   1.452       .  S
C131        C340   1.488       .  S
C131        C132   1.382       .  A
C132        C133   1.361       .  A
C132        H135   1.083       .  S
C133        C134   1.380       .  A
C133        H136   1.083       .  S
N137        C141   1.357       .  A
N137        C138   1.362       .  A
N137        C328   1.449   1_554  S
C138        C268   1.469       .  S
C138        C139   1.382       .  A
C139        C140   1.363       .  A
C139        H142   1.083       .  S
C140        C141   1.380       .  A
C140        H143   1.083       .  S
O144       Cu152   2.017       .  S
O144        C154   1.277   1_455  A
O145       Cu152   2.024   1_556  S
O145        C155   1.279   1_455  A
O146       Cu152   1.994       .  S
O146        C156   1.276       .  A
O147       Cu152   2.015   1_655  S
O147        C157   1.280       .  A
O148       Cu153   2.007       .  S
O148        C157   1.277       .  A
O149       Cu153   2.015   1_455  S
O149        C156   1.277       .  A
O150       Cu153   2.037   1_556  S
O150        C155   1.281       .  A
O151       Cu153   2.030       .  S
O151        C154   1.281       .  A
Cu152      Cu153   2.372   1_455  S
C154        C229   1.483       .  S
C155        C256   1.493       .  S
C156        C220   1.465       .  S
C157        C241   1.481       .  S
N158        C162   1.370       .  A
N158        C159   1.368       .  A
N158        C232   1.452       .  S
C159        C316   1.482   1_455  S
C159        C160   1.377       .  A
C160        C161   1.358       .  A
C160        H163   1.082       .  S
C161        C162   1.386       .  A
C161        H164   1.083       .  S
C162        C203   1.484       .  S
N165        C169   1.365       .  A
N165        C166   1.365   1_556  A
N165        C352   1.449       .  S
C166        C217   1.485       .  S
C166        C167   1.381       .  A
C167        C168   1.365       .  A
C167        H170   1.083       .  S
C168        C169   1.381   1_554  A
C168        H171   1.083       .  S
N172        C176   1.364       .  A
N172        C173   1.368       .  A
N172        C253   1.461       .  S
C173        C412   1.477       .  S
C173        C174   1.383       .  A
C174        C175   1.358       .  A
C174        H177   1.082       .  S
C175        C176   1.378       .  A
C175        H178   1.083       .  S
C176        C197   1.459       .  S
N179        C183   1.362       .  A
N179        C180   1.360       .  A
N179        C424   1.449       .  S
C180        C484   1.468       .  S
C180        C181   1.381       .  A
C181        C182   1.363       .  A
C181        H184   1.082       .  S
C182        C183   1.381       .  A
C182        H185   1.083       .  S
N186        C190   1.362       .  A
N186        C187   1.365       .  A
N186        C493   1.448       .  S
C187        C244   1.481       .  S
C187        C188   1.381       .  A
C188        C189   1.366       .  A
C188        H191   1.082       .  S
C189        C190   1.382       .  A
C189        H192   1.083       .  S
C193        N194   1.354       .  A
C193        N198   1.354       .  A
C193        C205   1.497       .  S
N194        C195   1.358   1_455  A
C195        N196   1.358       .  A
N196        C197   1.358       .  A
C197        N198   1.358   1_655  A
C199        N200   1.353       .  A
C199        N204   1.352       .  A
C199        C208   1.502       .  S
N200        C201   1.362       .  A
C201        N202   1.370       .  A
N202        C203   1.367       .  A
C203        N204   1.361       .  A
C205        C206   1.409       .  A
C205        C210   1.412       .  A
C206        C207   1.406       .  A
C206        H211   1.084       .  S
C207        C208   1.415       .  A
C207        O212   1.372       .  S
C208        C209   1.411       .  A
C209        C210   1.403       .  A
C209        H213   1.083       .  S
C210        O214   1.372       .  S
O212        H216   0.996       .  S
O214        H215   0.992       .  S
C217        C218   1.405       .  A
C217        C222   1.413   1_554  A
C218        C219   1.397       .  A
C218        H223   1.084       .  S
C219        C220   1.404       .  A
C219        O224   1.372       .  S
C220        C221   1.400   1_554  A
C221        C222   1.400       .  A
C221        H225   1.084       .  S
C222        O226   1.370       .  S
O224        H228   0.992       .  S
O226        H227   0.993       .  S
C229        C230   1.406   1_655  A
C229        C234   1.404       .  A
C230        C231   1.410       .  A
C230        H235   1.084       .  S
C231        C232   1.412       .  A
C231        O236   1.371       .  S
C232        C233   1.409   1_455  A
C233        C234   1.401       .  A
C233        H237   1.083       .  S
C234        O238   1.372       .  S
O236        H240   0.993       .  S
O238        H239   0.993       .  S
C241        C242   1.410       .  A
C241        C246   1.407       .  A
C242        C243   1.407       .  A
C242        H247   1.083       .  S
C243        C244   1.404       .  A
C243        O248   1.372       .  S
C244        C245   1.406       .  A
C245        C246   1.396       .  A
C245        H249   1.084   1_554  S
C246        O250   1.372   1_554  S
O248        H252   0.991       .  S
O250        H251   0.993       .  S
C253        C254   1.410   1_655  A
C253        C258   1.418       .  A
C254        C255   1.406       .  A
C254        H259   1.079       .  S
C255        C256   1.411   1_455  A
C255        O260   1.372       .  S
C256        C257   1.403       .  A
C257        C258   1.406       .  A
C257        H261   1.084       .  S
C258        O262   1.370       .  S
O260        H264   0.991       .  S
O262        H263   0.991       .  S
C265        C266   1.411       .  A
C265        C270   1.404   1_554  A
C266        C267   1.402       .  A
C266        H271   1.083       .  S
C267        C268   1.401       .  A
C267        O272   1.372       .  S
C268        C269   1.405   1_554  A
C269        C270   1.392       .  A
C269        H273   1.084       .  S
C270        O274   1.372       .  S
O272        H276   0.993       .  S
O274        H275   0.993       .  S
C277        C278   1.410       .  A
C277        C282   1.410   1_455  A
C278        C279   1.410       .  A
C278        H283   1.081       .  S
C279        C280   1.409       .  A
C279        O284   1.371       .  S
C280        C281   1.408       .  A
C281        C282   1.399   1_455  A
C281        H285   1.084   1_455  S
C282        O286   1.372       .  S
O284        H288   0.993       .  S
O286        H287   0.993       .  S
C289        C290   1.404       .  A
C289        C294   1.405   1_545  A
C290        C291   1.410       .  A
C290        H295   1.084       .  S
C291        C292   1.413   1_545  A
C291        O296   1.372       .  S
C292        C293   1.406       .  A
C293        C294   1.404       .  A
C293        H297   1.083       .  S
C294        O298   1.371       .  S
O296        H300   0.995       .  S
O298        H299   0.992       .  S
C301        C302   1.402       .  A
C301        C306   1.416       .  A
C302        C303   1.391       .  A
C302        H307   1.084   1_655  S
C303        C304   1.409       .  A
C303        O308   1.373   1_655  S
C304        C305   1.403       .  A
C305        C306   1.409       .  A
C305        H309   1.083       .  S
C306        O310   1.371       .  S
O308        H312   0.992       .  S
O310        H311   0.993       .  S
C313        C314   1.400       .  A
C313        C318   1.408   1_655  A
C314        C315   1.397       .  A
C314        H319   1.084       .  S
C315        C316   1.409       .  A
C315        O320   1.374       .  S
C316        C317   1.404   1_655  A
C317        C318   1.406       .  A
C317        H321   1.083       .  S
C318        O322   1.370       .  S
O320        H324   0.992       .  S
O322        H323   0.996       .  S
C325        C326   1.409       .  A
C325        C330   1.412       .  A
C326        C327   1.416       .  A
C326        H331   1.083       .  S
C327        C328   1.412       .  A
C327        O332   1.372       .  S
C328        C329   1.401   1_556  A
C329        C330   1.395   1_554  A
C329        H333   1.083       .  S
C330        O334   1.372   1_556  S
O332        H336   0.993       .  S
O334        H335   0.993       .  S
C337        C338   1.407   1_565  A
C337        C342   1.404       .  A
C338        C339   1.408       .  A
C338        H343   1.084       .  S
C339        C340   1.410   1_545  A
C339        O344   1.371       .  S
C340        C341   1.407       .  A
C341        C342   1.397       .  A
C341        H345   1.084       .  S
C342        O346   1.372       .  S
O344        H348   0.992       .  S
O346        H347   0.992       .  S
C349        C350   1.405       .  A
C349        C354   1.401   1_556  A
C350        C351   1.408       .  A
C350        H355   1.084       .  S
C351        C352   1.411       .  A
C351        O356   1.371       .  S
C352        C353   1.409   1_556  A
C353        C354   1.399       .  A
C353        H357   1.083       .  S
C354        O358   1.372       .  S
O356        H360   0.992       .  S
O358        H359   0.991       .  S
C361        C362   1.401       .  A
C361        C366   1.412       .  A
C362        C363   1.406       .  A
C362        H367   1.083       .  S
C363        C364   1.414       .  A
C363        O368   1.372       .  S
C364        C365   1.398       .  A
C365        C366   1.396       .  A
C365        H369   1.084   1_565  S
C366        O370   1.373   1_565  S
O368        H372   0.990       .  S
O370        H371   0.992   1_545  S
C373        C374   1.399       .  A
C373        C378   1.416   1_655  A
C374        C375   1.391       .  A
C374        H379   1.084       .  S
C375        C376   1.410       .  A
C375        O380   1.373       .  S
C376        C377   1.411   1_655  A
C377        C378   1.418       .  A
C377        H381   1.083       .  S
C378        O382   1.370       .  S
O380        H384   0.992       .  S
O382        H383   0.993       .  S
C385        C386   1.407       .  A
C385        C390   1.411       .  A
C386        C387   1.399       .  A
C386        H391   1.083       .  S
C387        C388   1.412       .  A
C387        O392   1.371       .  S
C388        C389   1.415       .  A
C389        C390   1.415       .  A
C389        H393   1.080   1_565  S
C390        O394   1.371   1_565  S
O392        H396   0.994       .  S
O394        H395   0.993   1_545  S
C397        C398   1.409       .  A
C397        C402   1.400       .  A
C398        C399   1.398       .  A
C398        H403   1.084       .  S
C399        C400   1.400       .  A
C399        O404   1.373       .  S
C400        C401   1.407       .  A
C401        C402   1.391       .  A
C401        H405   1.084       .  S
C402        O406   1.372   1_655  S
O404        H408   0.992       .  S
O406        H407   0.993   1_455  S
C409        C410   1.398       .  A
C409        C414   1.407   1_655  A
C410        C411   1.396       .  A
C410        H415   1.083       .  S
C411        C412   1.411       .  A
C411        O416   1.374       .  S
C412        C413   1.403   1_655  A
C413        C414   1.402       .  A
C413        H417   1.083       .  S
C414        O418   1.372       .  S
O416        H420   0.992       .  S
O418        H419   0.991       .  S
C421        C422   1.407   1_565  A
C421        C426   1.413       .  A
C422        C423   1.417       .  A
C422        H427   1.083       .  S
C423        C424   1.417   1_545  A
C423        O428   1.373       .  S
C424        C425   1.398       .  A
C425        C426   1.395       .  A
C425        H429   1.083       .  S
C426        O430   1.372       .  S
O428        H432   0.992       .  S
O430        H431   0.991       .  S
C433        C434   1.406       .  A
C433        C438   1.410   1_554  A
C434        C435   1.397       .  A
C434        H439   1.084       .  S
C435        C436   1.402       .  A
C435        O440   1.372       .  S
C436        C437   1.400   1_554  A
C437        C438   1.398       .  A
C437        H441   1.084       .  S
C438        O442   1.372       .  S
O440        H444   0.993       .  S
O442        H443   0.991       .  S
C445        C446   1.406   1_565  A
C445        C450   1.409       .  A
C446        C447   1.405       .  A
C446        H451   1.082       .  S
C447        C448   1.409   1_545  A
C447        O452   1.371       .  S
C448        C449   1.404       .  A
C449        C450   1.402       .  A
C449        H453   1.084       .  S
C450        O454   1.372       .  S
O452        H456   0.992       .  S
O454        H455   0.993       .  S
C457        C458   1.398       .  A
C457        C462   1.411   1_554  A
C458        C459   1.405       .  A
C458        H463   1.084       .  S
C459        C460   1.417       .  A
C459        O464   1.372       .  S
C460        C461   1.408   1_554  A
C461        C462   1.407       .  A
C461        H465   1.081       .  S
C462        O466   1.372       .  S
O464        H468   0.993       .  S
O466        H467   0.992       .  S
C469        C470   1.409       .  A
C469        C474   1.407       .  A
C470        C471   1.408       .  A
C470        H475   1.083       .  S
C471        C472   1.405       .  A
C471        O476   1.371       .  S
C472        C473   1.402       .  A
C473        C474   1.394       .  A
C473        H477   1.084   1_565  S
C474        O478   1.373   1_565  S
O476        H480   0.991       .  S
O478        H479   0.993       .  S
C481        C482   1.398       .  A
C481        C486   1.410       .  A
C482        C483   1.388       .  A
C482        H487   1.084   1_565  S
C483        C484   1.407       .  A
C483        O488   1.374   1_565  S
C484        C485   1.402       .  A
C485        C486   1.405       .  A
C485        H489   1.083       .  S
C486        O490   1.371       .  S
O488        H492   0.993       .  S
O490        H491   0.992       .  S
C493        C494   1.408   1_554  A
C493        C498   1.409       .  A
C494        C495   1.410       .  A
C494        H499   1.082       .  S
C495        C496   1.413   1_556  A
C495        O500   1.371       .  S
C496        C497   1.403       .  A
C497        C498   1.400       .  A
C497        H501   1.084       .  S
C498        O502   1.372       .  S
O500        H504   0.993       .  S
O502        H503   0.992       .  S
C505        C506   1.407       .  A
C505        C510   1.418       .  A
C506        C507   1.403       .  A
C506        H511   1.084       .  S
C507        C508   1.418       .  A
C507        O512   1.372       .  S
C508        C509   1.406       .  A
C509        C510   1.405       .  A
C509        H513   1.084       .  S
C510        O514   1.373       .  S
O512        H516   0.992       .  S
O514        H515   0.994       .  S
C517        C518   1.409       .  A
C517        C522   1.415       .  A
C518        C519   1.406       .  A
C518        H523   1.083       .  S
C519        C520   1.415       .  A
C519        O524   1.373       .  S
C520        C521   1.410       .  A
C521        C522   1.404       .  A
C521        H525   1.083       .  S
C522        O526   1.371       .  S
O524        H528   0.993       .  S
O526        H527   0.992       .  S
