geometry optimzed in LAMMPS
_audit_creation_date              2020-11-30 
_audit_creation_method            'lammps2cif' 
_symmetry_space_group_name_H-M    'P1' 
_symmetry_Int_Tables_number       1 
_symmetry_cell_setting            triclinic 
loop_ 
_symmetry_equiv_pos_as_xyz 
  x,y,z 
_cell_length_a                    41.98933995 
_cell_length_b                    24.27379712956922 
_cell_length_c                    37.088436007625695 
_cell_angle_alpha                 90.01694728784052 
_cell_angle_beta                  89.97453582517922 
_cell_angle_gamma                 89.97267945104295 
loop_ 
_atom_site_label 
_atom_site_type_symbol 
_atom_site_fract_x 
_atom_site_fract_y 
_atom_site_fract_z 
_atom_site_charge 
C1          C  0.71860996  0.47653989  0.46383652     0.32300
C2          C  0.71698312  0.52258337  0.03579820     0.32300
C3          C  0.68552026  0.47788657  0.48111588    -0.03900
C4          C  0.73566631  0.43051044  0.48446013    -0.04700
C5          C  0.73425548  0.52934698  0.47808681    -0.04500
C6          C  0.68408083  0.52096997  0.01813121    -0.03900
C7          C  0.73294963  0.46979165  0.02205611    -0.04700
C8          C  0.73409447  0.56831891  0.01506850    -0.04500
C9          C  0.65275494  0.52413241  0.02895067    -0.29900
N10         N  0.63413228  0.51945759  0.99921951     0.16600
C11         C  0.65429639  0.47749983  0.46971204    -0.29900
H12         H  0.64594930  0.47420912  0.44219041     0.18500
C13         C  0.74665837  0.42302296  0.03650065    -0.28900
N14         N  0.76004193  0.35795590  0.50807655     0.15300
C15         C  0.75097982  0.38169483  0.47655301    -0.28900
C16         C  0.74822390  0.61803847  0.02298073    -0.29200
N17         N  0.75391816  0.61147600  0.49195669     0.15800
H18         H  0.75110606  0.63609647  0.04946418     0.18400
C19         C  0.74661123  0.57752728  0.46404001    -0.29200
H20         H  0.74918447  0.58778667  0.43578380     0.18400
H21         H  0.75484024  0.36435060  0.45000801     0.18400
H22         H  0.64409943  0.52890857  0.05628030     0.18500
H23         H  0.74981493  0.41379211  0.06483014     0.18400
C24         C  0.71836436  0.50950074  0.21412419     0.32300
C25         C  0.71782391  0.49814135  0.28606627     0.32300
C26         C  0.68533515  0.50145789  0.23086847    -0.03900
C27         C  0.73735738  0.46009927  0.22849222    -0.04700
C28         C  0.73201278  0.55835045  0.23516862    -0.04500
C29         C  0.68508940  0.49537803  0.26801467    -0.03900
C30         C  0.73701320  0.45449819  0.26570562    -0.04700
C31         C  0.73177551  0.55270064  0.27238082    -0.04500
C32         C  0.65389540  0.48765676  0.27842026    -0.29900
N33         N  0.63539633  0.48900537  0.24842996     0.16600
C34         C  0.65422036  0.49776867  0.21920474    -0.29900
H35         H  0.64585148  0.50140568  0.19171027     0.18500
C36         C  0.75275304  0.40641274  0.27408868    -0.28900
N37         N  0.76265033  0.38280235  0.24289852     0.15300
C38         C  0.75340002  0.41496154  0.21476968    -0.28900
C39         C  0.74477841  0.60028698  0.28662775    -0.29200
N40         N  0.75273395  0.63406899  0.25881235     0.15800
H41         H  0.74815406  0.60965935  0.31490596     0.18400
C42         C  0.74508502  0.60897618  0.22730654    -0.29200
H43         H  0.74873853  0.62633068  0.20073442     0.18400
H44         H  0.75701599  0.40520554  0.18658476     0.18400
H45         H  0.64521555  0.48213829  0.30567521     0.18500
H46         H  0.75573946  0.38883107  0.30069684     0.18400
C47         C  0.86356417  0.98713222  0.46580613     0.32300
C48         C  0.86239100  0.01080370  0.03668094     0.32300
C49         C  0.89627698  0.97739675  0.48286385    -0.03900
C50         C  0.85049915  0.03639164  0.48691288    -0.04700
C51         C  0.84373737  0.93847238  0.47968354    -0.04500
C52         C  0.89542513  0.01307256  0.01922068    -0.03900
C53         C  0.84610990  0.06314837  0.02262030    -0.04700
C54         C  0.84566231  0.96457067  0.01598557    -0.04500
C55         C  0.92675549  0.01123834  0.03025400    -0.29900
N56         N  0.94618195  0.96707178  0.50111777     0.16600
C57         C  0.92755669  0.97535008  0.47169011    -0.29900
H58         H  0.93623382  0.98112221  0.44448167     0.18500
C59         C  0.83166260  0.10942335  0.03678120    -0.28900
N60         N  0.83080971  0.11290735  0.51072708     0.15300
C61         C  0.83842138  0.08784297  0.47918099    -0.28900
C62         C  0.83101435  0.91522730  0.02388096    -0.29200
N63         N  0.81793504  0.86139637  0.49302552     0.15800
H64         H  0.82765047  0.89750402  0.05039555     0.18400
C65         C  0.82774714  0.89386205  0.46533154    -0.29200
H66         H  0.82467527  0.88450130  0.43701274     0.18400
H67         H  0.83521178  0.10560990  0.45266283     0.18400
H68         H  0.93528578  0.00685548  0.05763441     0.18500
H69         H  0.82810846  0.11869275  0.06505006     0.18400
C70         C  0.86405173  0.99995468  0.21550830     0.32300
C71         C  0.86403764  0.00777709  0.28769507     0.32300
C72         C  0.89700636  0.99843533  0.23310491    -0.03900
C73         C  0.84937628  0.05299599  0.23065801    -0.04700
C74         C  0.84583281  0.95421442  0.23511339    -0.04500
C75         C  0.89700664  0.00241507  0.27040082    -0.03900
C76         C  0.84935248  0.05705498  0.26797227    -0.04700
C77         C  0.84582877  0.95827464  0.27240871    -0.04500
C78         C  0.92831961  0.00220563  0.28153785    -0.29900
N79         N  0.94705205  0.99828455  0.25180720     0.16600
C80         C  0.92830013  0.99598380  0.22205765    -0.29900
H81         H  0.93685481  0.99354366  0.19455373     0.18500
C82         C  0.83652274  0.10765762  0.27674415    -0.28900
N83         N  0.82883822  0.13398752  0.24562918     0.15300
C84         C  0.83658725  0.10119838  0.21728921    -0.28900
C85         C  0.83008048  0.91268736  0.28567287    -0.29200
N86         N  0.82060977  0.88144245  0.25727305     0.15800
H87         H  0.82654031  0.90224383  0.31377202     0.18400
C88         C  0.83009048  0.90620032  0.22623600    -0.29200
H89         H  0.82656509  0.88975649  0.19940759     0.18400
H90         H  0.83350914  0.11192200  0.18917485     0.18400
H91         H  0.93688339  0.00552536  0.30897188     0.18500
H92         H  0.83338429  0.12435254  0.30357702     0.18400
O93         O  0.58554003  0.47267528  0.99862905    -0.72100
O94         O  0.49405128  0.44920552  0.49550273    -0.72100
O95         O  0.53962321  0.45454795  0.44208687    -0.72200
O96         O  0.54019233  0.47217282  0.05277447    -0.72200
O97         O  0.53869747  0.56362746  0.05191810    -0.72200
O98         O  0.54229650  0.54527645  0.44927888    -0.72200
O99         O  0.49340200  0.56204720  0.99873777    -0.72100
O100        O  0.58760709  0.53353847  0.50248305    -0.72200
Ni101      Ni  0.53962811  0.44297441  0.49487025     1.25400
Ni102      Ni  0.54199524  0.54023929  0.50233343     1.25400
C103        C  0.60140739  0.48683503  0.49863617     0.90100
C104        C  0.48013677  0.49585885  0.49879378     0.90000
C105        C  0.54104223  0.50314689  0.42800555     0.90000
C106        C  0.53940447  0.51848536  0.07015937     0.90200
O107        O  0.58543886  0.53123983  0.24849680    -0.72100
O108        O  0.49442292  0.52618684  0.25013294    -0.72100
O109        O  0.54052234  0.52589886  0.30301650    -0.72200
O110        O  0.53925129  0.52944730  0.19549032    -0.72200
O111        O  0.54150487  0.43802974  0.19524493    -0.72200
O112        O  0.54156414  0.43449347  0.30043180    -0.72200
O113        O  0.49579751  0.43440504  0.24787995    -0.72100
O114        O  0.58739496  0.43944561  0.24790141    -0.72200
Ni115      Ni  0.53985562  0.53147640  0.24931619     1.25400
Ni116      Ni  0.54163644  0.43353740  0.24780896     1.25400
C117        C  0.60139101  0.48637178  0.24815054     0.90100
C118        C  0.48016081  0.47970655  0.24923263     0.90000
C119        C  0.54104555  0.47882190  0.31949717     0.90000
C120        C  0.54027332  0.48360605  0.17755805     0.90200
O121        O  0.99455017  0.06249236  0.99990063    -0.72100
O122        O  0.08492455  0.02493562  0.50159896    -0.72100
O123        O  0.03965297  0.02092120  0.44763893    -0.72200
O124        O  0.03989702  0.06375656  0.05326945    -0.72200
O125        O  0.04056181  0.97232191  0.05508884    -0.72200
O126        O  0.04178062  0.92949366  0.44791338    -0.72200
O127        O  0.08597119  0.97067735  0.00100121    -0.72100
O128        O  0.99648013  0.92460620  0.50125026    -0.72200
Ni129      Ni  0.03936946  0.02346135  0.50142881     1.25400
Ni130      Ni  0.04238817  0.92560974  0.50052424     1.25400
C131        C  0.98021694  0.96931318  0.50128792     0.90100
C132        C  0.10144476  0.98071800  0.50061068     0.90000
C133        C  0.04080656  0.97489379  0.42997202     0.90000
C134        C  0.04030892  0.01902214  0.07201391     0.90200
O135        O  0.99604049  0.04403394  0.24925189    -0.72100
O136        O  0.08744924  0.04363964  0.24831784    -0.72100
O137        O  0.04138291  0.03825345  0.19560902    -0.72200
O138        O  0.04200257  0.04923280  0.30188014    -0.72200
O139        O  0.04157520  0.95805800  0.30694049    -0.72200
O140        O  0.04163435  0.94710176  0.20076004    -0.72200
O141        O  0.08724058  0.95217321  0.25393716    -0.72100
O142        O  0.99599149  0.95243608  0.25388754    -0.72200
Ni143      Ni  0.04173442  0.04698762  0.24866351     1.25400
Ni144      Ni  0.04162128  0.94930374  0.25397866     1.25400
C145        C  0.98105358  0.99826130  0.25169354     0.90100
C146        C  0.10230636  0.99774973  0.25102263     0.90000
C147        C  0.04142265  0.99037569  0.18040652     0.90000
C148        C  0.04171457  0.00589257  0.32216088     0.90200
C149        C  0.36291460  0.50903348  0.46378498     0.32300
C150        C  0.36197990  0.51055372  0.03558989     0.32300
C151        C  0.39596513  0.50415776  0.48091934    -0.03900
C152        C  0.34722934  0.55560261  0.48527518    -0.04700
C153        C  0.34568496  0.45713908  0.47707804    -0.04500
C154        C  0.39493295  0.51129498  0.01796342    -0.03900
C155        C  0.34646488  0.56353252  0.02151560    -0.04700
C156        C  0.34448815  0.46503499  0.01505084    -0.04500
C157        C  0.42625916  0.50948776  0.02891910    -0.29900
N158        N  0.44610406  0.49810695  0.49907704     0.16600
C159        C  0.42726794  0.50488117  0.46966938    -0.29900
H160        H  0.43574456  0.50978153  0.44227853     0.18500
C161        C  0.33285427  0.61052890  0.03562484    -0.28900
N162        N  0.32549915  0.62967095  0.51017750     0.15300
C163        C  0.33368241  0.60621711  0.47825260    -0.28900
C164        C  0.32958578  0.41597479  0.02303933    -0.29200
N165        N  0.32181297  0.37778325  0.48947189     0.15800
H166        H  0.32638678  0.39814248  0.04955004     0.18400
C167        C  0.33074028  0.41178722  0.46218765    -0.29200
H168        H  0.32722441  0.40359369  0.43377214     0.18400
H169        H  0.33053679  0.62502381  0.45203688     0.18400
H170        H  0.43486688  0.50580521  0.05631697     0.18500
H171        H  0.32953610  0.62014852  0.06387963     0.18400
C172        C  0.36325157  0.48687278  0.21363045     0.32300
C173        C  0.36363410  0.49476726  0.28580646     0.32300
C174        C  0.39620055  0.48362755  0.23108356    -0.03900
C175        C  0.34929361  0.54034661  0.22884371    -0.04700
C176        C  0.34450654  0.44201402  0.23333024    -0.04500
C177        C  0.39641773  0.48786874  0.26836258    -0.03900
C178        C  0.34948238  0.54431805  0.26609381    -0.04700
C179        C  0.34471751  0.44601274  0.27071119    -0.04500
C180        C  0.42769710  0.48516250  0.27937436    -0.29900
N181        N  0.44618547  0.47874541  0.24963120     0.16600
C182        C  0.42731743  0.47803107  0.21994577    -0.29900
H183        H  0.43571723  0.47502061  0.19240951     0.18500
C184        C  0.33628713  0.59442314  0.27513282    -0.28900
N185        N  0.32821376  0.62063975  0.24417084     0.15300
C186        C  0.33597958  0.58822240  0.21567190    -0.28900
C187        C  0.32948259  0.40008115  0.28402745    -0.29200
N188        N  0.32008925  0.36892168  0.25558146     0.15800
H189        H  0.32668140  0.38892229  0.31211352     0.18400
C190        C  0.32912880  0.39384365  0.22449583    -0.29200
H191        H  0.32600492  0.37694978  0.19771900     0.18400
H192        H  0.33227250  0.59876534  0.18762714     0.18400
H193        H  0.43644082  0.48855330  0.30673389     0.18500
H194        H  0.33287841  0.61066024  0.30205317     0.18400
C195        C  0.21815356  0.02209955  0.03559576     0.32300
C196        C  0.21822925  0.99443576  0.46391614     0.32300
C197        C  0.18505468  0.01916396  0.01850552    -0.03900
C198        C  0.23433957  0.06864607  0.01468223    -0.04700
C199        C  0.23466262  0.97018572  0.02140015    -0.04500
C200        C  0.18520974  0.99221354  0.48142062    -0.03900
C201        C  0.23185830  0.04964334  0.47699302    -0.04700
C202        C  0.23711432  0.95157499  0.48532915    -0.04500
C203        C  0.15423962  0.98270900  0.47075899    -0.29900
N204        N  0.13539566  0.98473825  0.50049162     0.16600
C205        C  0.15386909  0.02150525  0.02988265    -0.29900
H206        H  0.14554683  0.02638297  0.05733934     0.18500
C207        C  0.24494920  0.09666843  0.46207840    -0.28900
N208        N  0.25244785  0.13177482  0.48933837     0.15300
C209        C  0.24827160  0.11859206  0.02233628    -0.28900
C210        C  0.25184310  0.90192947  0.47839318    -0.29200
N211        N  0.26056446  0.87922157  0.51033181     0.15800
H212        H  0.25469723  0.88258519  0.45229072     0.18400
C213        C  0.24924088  0.92408849  0.03555482    -0.29200
H214        H  0.25281938  0.91483066  0.06381860     0.18400
H215        H  0.25152007  0.13664954  0.04876254     0.18400
H216        H  0.14596682  0.97530908  0.44355496     0.18500
H217        H  0.24879541  0.10469393  0.43369156     0.18400
C218        C  0.21958266  0.98749636  0.28538751     0.32300
C219        C  0.21896615  0.99670557  0.21325377     0.32300
C220        C  0.18644841  0.99081284  0.26839803    -0.03900
C221        C  0.23645269  0.03848088  0.27044760    -0.04700
C222        C  0.23541665  0.94002395  0.26509353    -0.04500
C223        C  0.18612332  0.99585662  0.23116136    -0.03900
C224        C  0.23612130  0.04310415  0.23318857    -0.04700
C225        C  0.23513791  0.94453416  0.22776513    -0.04500
C226        C  0.15476105  0.00005328  0.22062825    -0.29900
N227        N  0.13629871  0.99719314  0.25061674     0.16600
C228        C  0.15527993  0.99136931  0.27997274    -0.29900
H229        H  0.14698246  0.98807929  0.30754175     0.18500
C230        C  0.25014888  0.09252238  0.22443525    -0.28900
N231        N  0.25892416  0.11762656  0.25552168     0.15300
C232        C  0.25071270  0.08530038  0.28387584    -0.28900
C233        C  0.25024497  0.89843070  0.21423840    -0.29200
N234        N  0.25948937  0.86674527  0.24256235     0.15800
H235        H  0.25406535  0.88850117  0.18611098     0.18400
C236        C  0.25062001  0.89160811  0.27371835    -0.29200
H237        H  0.25476201  0.87545970  0.30051860     0.18400
H238        H  0.25387971  0.09595525  0.31198242     0.18400
H239        H  0.14597521  0.00447103  0.19335674     0.18500
H240        H  0.25278330  0.10982153  0.19768874     0.18400
C241        C  0.21852375  0.98664143  0.42542420    -0.16200
C242        C  0.21901180  0.98234595  0.39348023     0.07900
C243        C  0.21958787  0.98091265  0.35614483     0.10500
C244        C  0.21980031  0.98271032  0.32409561    -0.17000
C245        C  0.21825616  0.02676310  0.07433951    -0.16200
C246        C  0.21821465  0.02283109  0.10632830     0.07900
C247        C  0.21827734  0.01236804  0.14308975     0.09700
C248        C  0.21853530  0.00321531  0.17462187    -0.17000
C249        C  0.30633970  0.31641697  0.25785165    -0.16200
C250        C  0.29518967  0.27068117  0.25899738     0.07900
C251        C  0.28271939  0.21666976  0.25900670     0.09700
C252        C  0.27195129  0.17066343  0.25786717    -0.17000
C253        C  0.31423669  0.67310978  0.24205722    -0.16200
C254        C  0.30216716  0.71824286  0.24065990     0.07900
C255        C  0.28771470  0.77092968  0.23987701     0.09700
C256        C  0.27488941  0.81548061  0.24040538    -0.17000
C257        C  0.26671671  0.18398663  0.48562336    -0.16200
C258        C  0.27916454  0.22893740  0.48385828     0.07900
C259        C  0.29398504  0.28158779  0.48388195     0.09700
C260        C  0.30677680  0.32623961  0.48569797    -0.17000
C261        C  0.27446560  0.82677093  0.51434430    -0.16200
C262        C  0.28625934  0.78130405  0.51622040     0.07900
C263        C  0.30000117  0.72777930  0.51609424     0.09700
C264        C  0.31174729  0.68227595  0.51410881    -0.17000
C265        C  0.36386493  0.50021670  0.32444561    -0.16200
C266        C  0.36376487  0.50743162  0.35615515     0.07900
C267        C  0.36339057  0.51457121  0.39318687     0.09700
C268        C  0.36305504  0.51560052  0.42522935    -0.17000
C269        C  0.36226054  0.50374807  0.07419247    -0.16200
C270        C  0.36272724  0.49591947  0.10586621     0.07900
C271        C  0.36312261  0.48734028  0.14282105     0.09700
C272        C  0.36320299  0.48388075  0.17482688    -0.17000
C273        C  0.04104502  0.97085968  0.38843405    -0.14100
C274        C  0.04143606  0.01281101  0.36356506    -0.29300
H275        H  0.04111040  0.92920287  0.37770176     0.14900
H276        H  0.04152279  0.05473150  0.37380552     0.15500
C277        C  0.04051929  0.02439167  0.11358367    -0.14100
C278        C  0.04122302  0.98305079  0.13895597    -0.29300
H279        H  0.04011500  0.06632490  0.12382640     0.14900
H280        H  0.04161830  0.94095050  0.12905673     0.15500
C281        C  0.54119632  0.51254669  0.38683029    -0.14100
C282        C  0.54091693  0.47220320  0.36087295    -0.29300
H283        H  0.54167747  0.55505086  0.37771139     0.14900
H284        H  0.54064006  0.42992431  0.37047843     0.15500
C285        C  0.53927902  0.52269720  0.11172625    -0.14100
C286        C  0.54015495  0.48007935  0.13597689    -0.29300
H287        H  0.53848862  0.56411848  0.12280947     0.14900
H288        H  0.54097991  0.43873723  0.12477356     0.15500
C289        C  0.86387288  0.99457094  0.42729020    -0.16200
C290        C  0.86409996  0.00196563  0.39558703     0.07900
C291        C  0.86420722  0.00899458  0.35851613     0.09700
C292        C  0.86415294  0.01111901  0.32647210    -0.17000
C293        C  0.86259294  0.00435509  0.07533424    -0.16200
C294        C  0.86314263  0.99947201  0.10727198     0.07900
C295        C  0.86383020  0.99606693  0.14460202     0.09700
C296        C  0.86412431  0.99617878  0.17670284    -0.17000
C297        C  0.81545009  0.18702556  0.24313407    -0.16200
C298        C  0.80383831  0.23260549  0.24126552     0.07900
C299        C  0.78992495  0.28591388  0.24005960     0.09700
C300        C  0.77758926  0.33100665  0.24050863    -0.17000
C301        C  0.76656041  0.68672205  0.26162898    -0.16200
C302        C  0.77849626  0.73211555  0.26238792     0.07900
C303        C  0.79275806  0.78514811  0.26142000     0.09700
C304        C  0.80538505  0.82991254  0.25967978    -0.17000
C305        C  0.77574268  0.30690270  0.51131196    -0.16200
C306        C  0.78134424  0.29194877  0.01358868     0.07900
C307        C  0.80430129  0.21044715  0.51445019     0.09700
C308        C  0.81679846  0.16546072  0.51363516    -0.17000
C309        C  0.76620893  0.66519480  0.48912210    -0.16200
C310        C  0.78248310  0.74019185  0.98723895     0.07900
C311        C  0.79062784  0.76484068  0.48811754     0.09700
C312        C  0.80293882  0.80983152  0.48973816    -0.17000
C313        C  0.71852166  0.47177338  0.42514255    -0.16200
C314        C  0.71803881  0.47411595  0.39311985     0.07900
C315        C  0.71752611  0.48246709  0.35618313     0.09700
C316        C  0.71746206  0.49079647  0.32458341    -0.17000
C317        C  0.71674162  0.52841597  0.07446755    -0.16200
C318        C  0.71701019  0.52836812  0.10655046     0.07900
C319        C  0.71777532  0.52310413  0.14375636     0.09700
C320        C  0.71836210  0.51649790  0.17554323    -0.17000
C321        C  0.71734792  0.51046256  0.96384085     0.32300
C322        C  0.71824069  0.48770943  0.53580599     0.32300
C323        C  0.68424732  0.51446774  0.98097680    -0.03900
C324        C  0.73312268  0.46370615  0.98491212    -0.04700
C325        C  0.73430066  0.56226290  0.97782559    -0.04500
C326        C  0.68530943  0.48404625  0.51827609    -0.03900
C327        C  0.73547202  0.43621122  0.52171073    -0.04700
C328        C  0.73408951  0.53488029  0.51526430    -0.04500
C329        C  0.65395469  0.48822464  0.52891079    -0.29900
N330        N  0.63538090  0.48396545  0.49909012     0.16600
C331        C  0.65298306  0.51325943  0.96974915    -0.29900
H332        H  0.64453300  0.50822131  0.94238231     0.18500
C333        C  0.75071853  0.39068491  0.53587324    -0.28900
N334        N  0.75502844  0.38929764  0.00884898     0.15300
C335        C  0.74687948  0.41353613  0.97723336    -0.28900
C336        C  0.74633553  0.58604476  0.52335779    -0.29200
N337        N  0.75696157  0.64211863  0.99149499     0.15800
H338        H  0.74862848  0.60411712  0.54991355     0.18400
C339        C  0.74858781  0.60870656  0.96366403    -0.29200
H340        H  0.75182485  0.61821548  0.93538270     0.18400
H341        H  0.75022418  0.39557018  0.95077855     0.18400
H342        H  0.64526660  0.49447668  0.55609713     0.18500
H343        H  0.75435664  0.38163969  0.56415119     0.18400
C344        C  0.71930554  0.49961881  0.71414663     0.32300
C345        C  0.71896233  0.48733059  0.78605567     0.32300
C346        C  0.68619984  0.49712890  0.73136984    -0.03900
C347        C  0.73550266  0.44704471  0.72804750    -0.04700
C348        C  0.73585236  0.54578614  0.73512487    -0.04500
C349        C  0.68600055  0.49069634  0.76850669    -0.03900
C350        C  0.73534132  0.44075206  0.76522886    -0.04700
C351        C  0.73568217  0.53944428  0.77227809    -0.04500
C352        C  0.65459813  0.48934537  0.77935939    -0.29900
N353        N  0.63600513  0.49494689  0.74964115     0.16600
C354        C  0.65494966  0.49980549  0.72015358    -0.29900
H355        H  0.64657491  0.50485100  0.69275500     0.18500
C356        C  0.74945874  0.39077222  0.77284922    -0.28900
N357        N  0.75812357  0.36689343  0.74120709     0.15300
C358        C  0.74971395  0.40067817  0.71361110    -0.28900
C359        C  0.74939387  0.58605501  0.78692327    -0.29200
N360        N  0.75778500  0.62010893  0.75947676     0.15800
H361        H  0.75223240  0.59521023  0.81530660     0.18400
C362        C  0.74960987  0.59613747  0.72771195    -0.29200
H363        H  0.75263084  0.61462419  0.70137330     0.18400
H364        H  0.75320421  0.39176737  0.68527532     0.18400
H365        H  0.64588564  0.48476098  0.80668001     0.18500
H366        H  0.75270434  0.37270834  0.79926728     0.18400
C367        C  0.86240545  0.02221502  0.96470273     0.32300
C368        C  0.86320245  0.97484719  0.53764209     0.32300
C369        C  0.89543438  0.01915599  0.98206197    -0.03900
C370        C  0.84612994  0.06892505  0.98538096    -0.04700
C371        C  0.84567056  0.97036852  0.97879838    -0.04500
C372        C  0.89610890  0.97087214  0.51997325    -0.03900
C373        C  0.85025076  0.03024694  0.52404875    -0.04700
C374        C  0.84357192  0.93227253  0.51687480    -0.04500
C375        C  0.92732006  0.96457231  0.53083460    -0.29900
N376        N  0.94554477  0.01644170  0.00064900     0.16600
C377        C  0.92677052  0.02138049  0.97102962    -0.29900
H378        H  0.93531429  0.02614837  0.94365652     0.18500
C379        C  0.83789509  0.07832447  0.53841978    -0.28900
N380        N  0.82304981  0.14257132  0.00894602     0.15300
C381        C  0.83174773  0.11844429  0.97744178    -0.28900
C382        C  0.82751087  0.88423427  0.52459915    -0.29200
N383        N  0.82221859  0.89122423  0.99237362     0.15800
H384        H  0.82423302  0.86601897  0.55098439     0.18400
C385        C  0.83100922  0.92432277  0.96458645    -0.29200
H386        H  0.82763338  0.91500205  0.93630024     0.18400
H387        H  0.82829272  0.13601814  0.95090706     0.18400
H388        H  0.93579211  0.96057727  0.55828378     0.18500
H389        H  0.83417968  0.08733921  0.56670342     0.18400
C390        C  0.86465502  0.98523293  0.71551482     0.32300
C391        C  0.86464701  0.00087401  0.78707067     0.32300
C392        C  0.89769014  0.98775994  0.73288242    -0.03900
C393        C  0.84868710  0.03881337  0.72815137    -0.04700
C394        C  0.84766393  0.94056896  0.73729443    -0.04500
C395        C  0.89770522  0.99632205  0.76983789    -0.03900
C396        C  0.84872810  0.04660388  0.76517082    -0.04700
C397        C  0.84760631  0.94834761  0.77433024    -0.04500
C398        C  0.92904433  0.99924050  0.78071598    -0.29900
N399        N  0.94780198  0.99182173  0.75129340     0.16600
C400        C  0.92900344  0.98455632  0.72189415    -0.29900
H401        H  0.93750985  0.97819307  0.69468426     0.18500
C402        C  0.83490533  0.09698881  0.77204072    -0.28900
N403        N  0.82644267  0.11987413  0.74009423     0.15300
C404        C  0.83471760  0.08494609  0.71298434    -0.28900
C405        C  0.83269123  0.90303354  0.78940526    -0.29200
N406        N  0.82387326  0.86864714  0.76221419     0.15800
H407        H  0.82914039  0.89513348  0.81781563     0.18400
C408        C  0.83290810  0.89106443  0.73033606    -0.29200
H409        H  0.82958629  0.87214364  0.70413975     0.18400
H410        H  0.83128186  0.09288510  0.68450526     0.18400
H411        H  0.93763136  0.00606471  0.80795274     0.18500
H412        H  0.83168140  0.11596787  0.79817252     0.18400
O413        O  0.58529297  0.44256001  0.49455913    -0.72100
O414        O  0.49433741  0.47019648  0.99949673    -0.72100
O415        O  0.53971632  0.47215462  0.94528379    -0.72200
O416        O  0.53991524  0.43823624  0.54806341    -0.72200
O417        O  0.54160490  0.52906757  0.55505992    -0.72200
O418        O  0.53950544  0.56362735  0.94646642    -0.72200
O419        O  0.49619217  0.54046403  0.50191662    -0.72100
O420        O  0.58481636  0.56452396  0.99970066    -0.72200
Ni421      Ni  0.53997187  0.46850955  0.99904714     1.25400
Ni422      Ni  0.53907295  0.56650651  0.99919859     1.25400
C423        C  0.60013836  0.51890317  0.99915980     0.90100
C424        C  0.47891381  0.51564307  0.99916093     0.90000
C425        C  0.53969631  0.51858553  0.92804702     0.90000
C426        C  0.54081604  0.48058524  0.56926823     0.90200
O427        O  0.58725852  0.54168553  0.75141022    -0.72100
O428        O  0.49591024  0.54336996  0.75161204    -0.72100
O429        O  0.54143829  0.53694004  0.80461425    -0.72200
O430        O  0.54156876  0.54762468  0.69839818    -0.72200
O431        O  0.54157217  0.45647908  0.69311267    -0.72200
O432        O  0.54038969  0.44580371  0.79943751    -0.72200
O433        O  0.49540251  0.45195583  0.74560701    -0.72100
O434        O  0.58673160  0.45006815  0.74704309    -0.72200
Ni435      Ni  0.54157953  0.54557323  0.75159173     1.25400
Ni436      Ni  0.54101979  0.44790771  0.74619585     1.25400
C437        C  0.60197520  0.49559104  0.74937867     0.90100
C438        C  0.48070339  0.49793044  0.74859062     0.90000
C439        C  0.54072035  0.48909120  0.81979895     0.90000
C440        C  0.54157156  0.50438304  0.67799295     0.90200
O441        O  0.99392382  0.01635288  0.50122321    -0.72100
O442        O  0.08595300  0.06255038  0.00096622    -0.72100
O443        O  0.04080443  0.06138006  0.94774496    -0.72200
O444        O  0.03951273  0.01865235  0.55513524    -0.72200
O445        O  0.04288311  0.92738249  0.55320566    -0.72200
O446        O  0.04033019  0.96989295  0.94758032    -0.72200
O447        O  0.08806114  0.93327224  0.49981094    -0.72100
O448        O  0.99462687  0.97067777  0.00161174    -0.72200
Ni449      Ni  0.04027739  0.06559138  0.00045656     1.25400
Ni450      Ni  0.04034236  0.96760773  0.00136433     1.25400
C451        C  0.97959490  0.01655240  0.00069682     0.90100
C452        C  0.10091660  0.01659703  0.00086175     0.90000
C453        C  0.04080669  0.01584666  0.92983273     0.90000
C454        C  0.04139829  0.97198451  0.57196505     0.90200
O455        O  0.99684046  0.03752794  0.75421358    -0.72100
O456        O  0.08825077  0.03735296  0.75298760    -0.72100
O457        O  0.04213094  0.04306869  0.70061624    -0.72200
O458        O  0.04287454  0.03191623  0.80666864    -0.72200
O459        O  0.04226530  0.94075356  0.80160105    -0.72200
O460        O  0.04263589  0.95193236  0.69525601    -0.72200
O461        O  0.08817766  0.94573089  0.74858004    -0.72100
O462        O  0.99681548  0.94613983  0.74810917    -0.72200
Ni463      Ni  0.04255006  0.04060422  0.75373229     1.25400
Ni464      Ni  0.04248925  0.94294259  0.74829529     1.25400
C465        C  0.98184229  0.99183749  0.75120572     0.90100
C466        C  0.10318546  0.99150370  0.75058901     0.90000
C467        C  0.04225956  0.99991130  0.68019402     0.90000
C468        C  0.04243687  0.98413882  0.82190952     0.90200
C469        C  0.36187067  0.52160658  0.96357606     0.32300
C470        C  0.36297881  0.49490348  0.53549880     0.32300
C471        C  0.39486577  0.51716993  0.98078590    -0.03900
C472        C  0.34641987  0.56909887  0.98423716    -0.04700
C473        C  0.34443879  0.47070301  0.97786270    -0.04500
C474        C  0.39601600  0.49677440  0.51797318    -0.03900
C475        C  0.34724184  0.54840458  0.52239624    -0.04700
C476        C  0.34573212  0.44996076  0.51413073    -0.04500
C477        C  0.42737352  0.49296762  0.52874858    -0.29900
N478        N  0.44493096  0.51450122  0.99922128     0.16600
C479        C  0.42612964  0.51925763  0.96964414    -0.29900
H480        H  0.43461602  0.52440784  0.94228091     0.18500
C481        C  0.33365175  0.59494585  0.53739399    -0.28900
N482        N  0.32467349  0.64383008  0.00771977     0.15300
C483        C  0.33282530  0.61917696  0.97622695    -0.28900
C484        C  0.33085270  0.40053375  0.52129382    -0.29200
N485        N  0.32059177  0.39213394  0.99155937     0.15800
H486        H  0.32744903  0.38194220  0.54753922     0.18400
C487        C  0.32950057  0.42496726  0.96372670    -0.29200
H488        H  0.32622129  0.41545540  0.93545400     0.18400
H489        H  0.32949943  0.63673224  0.94966479     0.18400
H490        H  0.43595920  0.48688884  0.55596881     0.18500
H491        H  0.33046613  0.60336035  0.56583653     0.18400
C492        C  0.36353639  0.48788942  0.71384147     0.32300
C493        C  0.36396348  0.50138096  0.78568646     0.32300
C494        C  0.39661734  0.49285175  0.73079988    -0.03900
C495        C  0.34622864  0.53943398  0.72750980    -0.04700
C496        C  0.34818318  0.44120118  0.73530160    -0.04500
C497        C  0.39683637  0.50020070  0.76789121    -0.03900
C498        C  0.34645733  0.54617891  0.76463387    -0.04700
C499        C  0.34837937  0.44796432  0.77246815    -0.04500
C500        C  0.42817158  0.50398645  0.77851861    -0.29900
N501        N  0.44672429  0.49844067  0.74876445     0.16600
C502        C  0.42783108  0.49141739  0.71945100    -0.29900
H503        H  0.43622668  0.48558720  0.69210456     0.18500
C504        C  0.33226808  0.59594242  0.77219727    -0.28900
N505        N  0.32346877  0.61931357  0.74055036     0.15300
C506        C  0.33185715  0.58548148  0.71297291    -0.28900
C507        C  0.33463765  0.40154450  0.78726375    -0.29200
N508        N  0.32626669  0.36745296  0.75981978     0.15800
H509        H  0.33130272  0.39291273  0.81565365     0.18400
C510        C  0.33441114  0.39105399  0.72800954    -0.29200
H511        H  0.33088846  0.37277725  0.70168776     0.18400
H512        H  0.32873347  0.59458726  0.68462393     0.18400
H513        H  0.43688666  0.50939955  0.80574833     0.18500
H514        H  0.32954960  0.61466431  0.79852223     0.18400
C515        C  0.21768085  0.00880271  0.53561319     0.32300
C516        C  0.21766596  0.01035022  0.96360669     0.32300
C517        C  0.18492132  0.99990073  0.51846240    -0.03900
C518        C  0.23155195  0.05692160  0.51407241    -0.04700
C519        C  0.23683342  0.95885803  0.52240316    -0.04500
C520        C  0.18477416  0.01289953  0.98133243    -0.03900
C521        C  0.23409909  0.06266892  0.97741223    -0.04700
C522        C  0.23441629  0.96424924  0.98425707    -0.04500
C523        C  0.15338256  0.01107881  0.97064120    -0.29900
N524        N  0.13489755  0.01650817  0.00047082     0.16600
C525        C  0.15375841  0.99555903  0.52976570    -0.29900
H526        H  0.14504841  0.99978072  0.55711564     0.18500
C527        C  0.24794189  0.10923383  0.96298951    -0.28900
N528        N  0.25644417  0.14274652  0.99067560     0.15300
C529        C  0.24437955  0.10805117  0.52119305    -0.28900
C530        C  0.24883523  0.91479573  0.97626055    -0.29200
N531        N  0.25773893  0.89090711  0.00771661     0.15800
H532        H  0.25202708  0.89696763  0.94974238     0.18400
C533        C  0.25144075  0.91333347  0.53749155    -0.29200
H534        H  0.25393980  0.90451697  0.56596127     0.18400
H535        H  0.24767656  0.12656831  0.54747820     0.18400
H536        H  0.14459967  0.00649774  0.94337681     0.18500
H537        H  0.25090058  0.11866525  0.93465330     0.18400
C538        C  0.22039208  0.98875001  0.78574807     0.32300
C539        C  0.22007916  0.00008611  0.71376832     0.32300
C540        C  0.18734033  0.99012733  0.76845500    -0.03900
C541        C  0.23614512  0.04133665  0.77156998    -0.04700
C542        C  0.23743193  0.94288978  0.76504219    -0.04500
C543        C  0.18714207  0.99600191  0.73127993    -0.03900
C544        C  0.23598518  0.04713816  0.73439809    -0.04700
C545        C  0.23729114  0.94867857  0.72777890    -0.04500
C546        C  0.15575630  0.99677358  0.72042387    -0.29900
N547        N  0.13719437  0.99145469  0.75020629     0.16600
C548        C  0.15612779  0.98736674  0.77971443    -0.29900
H549        H  0.14775768  0.98307165  0.80719450     0.18500
C550        C  0.25001897  0.09695195  0.72643723    -0.28900
N551        N  0.25858923  0.12112542  0.75794962     0.15300
C552        C  0.25027426  0.08777948  0.78574883    -0.28900
C553        C  0.25165102  0.90247886  0.71350609    -0.29200
N554        N  0.26038018  0.86935994  0.74128035     0.15800
H555        H  0.25465261  0.89285514  0.68520003     0.18400
C556        C  0.25183319  0.89338405  0.77286588    -0.29200
H557        H  0.25499001  0.87539113  0.79932464     0.18400
H558        H  0.25383873  0.09701779  0.81401444     0.18400
H559        H  0.14703385  0.00110964  0.69311468     0.18500
H560        H  0.25334095  0.11464707  0.69990974     0.18400
C561        C  0.21752469  0.00281084  0.92505865    -0.16200
C562        C  0.21820445  0.99436820  0.89345414     0.07900
C563        C  0.21944965  0.98605980  0.85649721     0.10500
C564        C  0.22027578  0.98380906  0.82446096    -0.17000
C565        C  0.21750107  0.01595850  0.57414034    -0.16200
C566        C  0.21809564  0.01713027  0.60618235     0.07900
C567        C  0.21912365  0.01295240  0.64339821     0.09700
C568        C  0.21977586  0.00691606  0.67520889    -0.17000
C569        C  0.31191038  0.31551487  0.76326796    -0.16200
C570        C  0.29958122  0.27062519  0.76439183     0.07900
C571        C  0.28519946  0.21796165  0.76339786     0.09700
C572        C  0.27293460  0.17310578  0.76122285    -0.17000
C573        C  0.30997437  0.67196241  0.73717052    -0.16200
C574        C  0.29865446  0.71763436  0.73576749     0.07900
C575        C  0.28551522  0.77128938  0.73616746     0.09700
C576        C  0.27407844  0.81684358  0.73799779    -0.17000
C577        C  0.27002917  0.19536793  0.98738958    -0.16200
C578        C  0.28150041  0.24094990  0.98598781     0.07900
C579        C  0.29485894  0.29448540  0.98644513     0.09700
C580        C  0.30652678  0.33987824  0.98833833    -0.17000
C581        C  0.27216326  0.83896594  0.01075377    -0.16200
C582        C  0.28438095  0.79400887  0.01220431     0.07900
C583        C  0.29854746  0.74116287  0.01215861     0.09700
C584        C  0.31061825  0.69608603  0.01069326    -0.17000
C585        C  0.36409311  0.50951516  0.82416046    -0.16200
C586        C  0.36354222  0.51748079  0.85580646     0.07900
C587        C  0.36259444  0.52485973  0.89283656     0.09700
C588        C  0.36200334  0.52656821  0.92488179    -0.17000
C589        C  0.36305383  0.48681090  0.57398606    -0.16200
C590        C  0.36306423  0.48127928  0.60586544     0.07900
C591        C  0.36316047  0.47872192  0.64320059     0.09700
C592        C  0.36333847  0.48088283  0.67525357    -0.17000
C593        C  0.04138171  0.01956367  0.88822588    -0.14100
C594        C  0.04201794  0.97745204  0.86338215    -0.29300
H595        H  0.04133436  0.06114929  0.87740799     0.14900
H596        H  0.04207018  0.93558613  0.87369012     0.15500
C597        C  0.04185953  0.96637118  0.61343375    -0.14100
C598        C  0.04183653  0.00756246  0.63884506    -0.29300
H599        H  0.04242572  0.92438694  0.62356147     0.14900
H600        H  0.04143941  0.04972296  0.62906822     0.15500
C601        C  0.53996203  0.52343569  0.88647583    -0.14100
C602        C  0.54031110  0.48189135  0.86124204    -0.29300
H603        H  0.53993115  0.56527509  0.87607841     0.14900
H604        H  0.54026670  0.43984731  0.87123132     0.15500
C605        C  0.54095840  0.47170989  0.61053622    -0.14100
C606        C  0.54156285  0.51212338  0.63662536    -0.29300
H607        H  0.54048519  0.42923755  0.61969097     0.14900
H608        H  0.54194565  0.55449056  0.62726927     0.15500
C609        C  0.86258438  0.02756933  0.92603215    -0.16200
C610        C  0.86317536  0.02633436  0.89398068     0.07900
C611        C  0.86407199  0.01894024  0.85695980     0.09700
C612        C  0.86460741  0.01027307  0.82540012    -0.17000
C613        C  0.86319187  0.96831290  0.57618188    -0.16200
C614        C  0.86361975  0.96652013  0.60819496     0.07900
C615        C  0.86430691  0.96984303  0.64542143     0.09700
C616        C  0.86467603  0.97624416  0.67718473    -0.17000
C617        C  0.81206991  0.17199406  0.73631362    -0.16200
C618        C  0.79970025  0.21705558  0.73498536     0.07900
C619        C  0.78514364  0.26993363  0.73568733     0.09700
C620        C  0.77267882  0.31485926  0.73774079    -0.17000
C621        C  0.77132215  0.67286795  0.76328249    -0.16200
C622        C  0.78296353  0.71836801  0.76578004     0.07900
C623        C  0.79688840  0.77169444  0.76698713     0.09700
C624        C  0.80917430  0.81681343  0.76590727    -0.17000
C625        C  0.76914332  0.33701602  0.01209095    -0.16200
C626        C  0.78906497  0.26273057  0.51340404     0.07900
C627        C  0.79581972  0.23919198  0.01352796     0.09700
C628        C  0.80833705  0.19438581  0.01200666    -0.17000
C629        C  0.77079494  0.69468200  0.98849909    -0.16200
C630        C  0.77709203  0.71130028  0.48789422     0.07900
C631        C  0.79611510  0.79365861  0.98754194     0.09700
C632        C  0.80799038  0.83899461  0.98921152    -0.17000
C633        C  0.71750798  0.50252588  0.92530076    -0.16200
C634        C  0.71784333  0.49334677  0.89376009     0.07900
C635        C  0.71831336  0.48428897  0.85682858     0.09700
C636        C  0.71866146  0.48192536  0.82476846    -0.17000
C637        C  0.71804923  0.49459560  0.57438941    -0.16200
C638        C  0.71832432  0.50095565  0.60619927     0.07900
C639        C  0.71888733  0.50587552  0.64342281     0.09700
C640        C  0.71926761  0.50563007  0.67549919    -0.17000
loop_ 
_geom_bond_atom_site_label_1 
_geom_bond_atom_site_label_2 
_geom_bond_distance 
_geom_bond_site_symmetry_2 
_ccdc_geom_bond_type 
C1            C3   1.530       .  S
C1            C5   1.535       .  S
C1            C4   1.532       .  S
C1          C313   1.440       .  S
C2            C6   1.530       .  S
C2            C8   1.530       .  S
C2            C7   1.533       .  S
C2          C317   1.441       .  S
C3           C11   1.378       .  A
C3          C326   1.386       .  A
C4           C15   1.379       .  A
C4          C327   1.388       .  A
C5           C19   1.382       .  A
C5          C328   1.385       .  A
C6            C9   1.377       .  A
C6          C323   1.387   1_554  A
C7           C13   1.381       .  A
C7          C324   1.385   1_554  A
C8           C16   1.377       .  A
C8          C325   1.389   1_554  A
C9           N10   1.357   1_554  A
C9           H22   1.083       .  S
N10         C331   1.358       .  A
N10         C423   1.427       .  S
C11         N330   1.357       .  A
C11          H12   1.082       .  S
C13         N334   1.358       .  A
C13          H23   1.083       .  S
N14          C15   1.358       .  A
N14         C333   1.359       .  A
N14         C305   1.409       .  S
C15          H21   1.083       .  S
C16         N337   1.357   1_554  A
C16          H18   1.082       .  S
N17          C19   1.358       .  A
N17         C336   1.356       .  A
N17         C309   1.407       .  S
C19          H20   1.083       .  S
C24          C26   1.532       .  S
C24          C28   1.531       .  S
C24          C27   1.536       .  S
C24         C320   1.441       .  S
C25          C29   1.531       .  S
C25          C31   1.535       .  S
C25          C30   1.530       .  S
C25         C316   1.440       .  S
C26          C34   1.379       .  A
C26          C29   1.386       .  A
C27          C38   1.383       .  A
C27          C30   1.387       .  A
C28          C42   1.377       .  A
C28          C31   1.387       .  A
C29          C32   1.378       .  A
C30          C36   1.377       .  A
C31          C39   1.383       .  A
C32          N33   1.357       .  A
C32          H45   1.083       .  S
N33          C34   1.358       .  A
N33         C117   1.429       .  S
C34          H35   1.082       .  S
C36          N37   1.356       .  A
C36          H46   1.083       .  S
N37          C38   1.360       .  A
N37         C300   1.408       .  S
C38          H44   1.082       .  S
C39          N40   1.360       .  A
C39          H41   1.083       .  S
N40          C42   1.356       .  A
N40         C301   1.408       .  S
C42          H43   1.083       .  S
C47          C49   1.531       .  S
C47          C51   1.534       .  S
C47          C50   1.530   1_565  S
C47         C289   1.440       .  S
C48          C52   1.532       .  S
C48          C54   1.531   1_545  S
C48          C53   1.534       .  S
C48         C293   1.442       .  S
C49          C57   1.378       .  A
C49         C372   1.385       .  A
C50          C61   1.378       .  A
C50         C373   1.385       .  A
C51          C65   1.381       .  A
C51         C374   1.388       .  A
C52          C55   1.379       .  A
C52         C369   1.386   1_554  A
C53          C59   1.380       .  A
C53         C370   1.388   1_554  A
C54          C62   1.378       .  A
C54         C371   1.386   1_554  A
C55         N376   1.358       .  A
C55          H68   1.082       .  S
N56          C57   1.358       .  A
N56         C375   1.358       .  A
N56         C131   1.430       .  S
C57          H58   1.082       .  S
C59         N380   1.358       .  A
C59          H69   1.083       .  S
N60          C61   1.357       .  A
N60         C379   1.360       .  A
N60         C308   1.409       .  S
C61          H67   1.082       .  S
C62         N383   1.357   1_554  A
C62          H64   1.083       .  S
N63          C65   1.359       .  A
N63         C382   1.357       .  A
N63         C312   1.407       .  S
C65          H66   1.082       .  S
C70          C72   1.531       .  S
C70          C74   1.532       .  S
C70          C73   1.534   1_565  S
C70         C296   1.442       .  S
C71          C75   1.531       .  S
C71          C77   1.533   1_545  S
C71          C76   1.532       .  S
C71         C292   1.440       .  S
C72          C80   1.377       .  A
C72          C75   1.387   1_565  A
C73          C84   1.380       .  A
C73          C76   1.387       .  A
C74          C88   1.380       .  A
C74          C77   1.387       .  A
C75          C78   1.378       .  A
C76          C82   1.380       .  A
C77          C85   1.380       .  A
C78          N79   1.357   1_545  A
C78          H91   1.082       .  S
N79          C80   1.357       .  A
N79         C145   1.428       .  S
C80          H81   1.083       .  S
C82          N83   1.358       .  A
C82          H92   1.082       .  S
N83          C84   1.358       .  A
N83         C297   1.408       .  S
C84          H90   1.083       .  S
C85          N86   1.358       .  A
C85          H87   1.083       .  S
N86          C88   1.358       .  A
N86         C304   1.408       .  S
C88          H89   1.082       .  S
O93        Ni421   1.916       .  S
O93         C423   1.279       .  A
O94        Ni101   1.920       .  S
O94         C104   1.280       .  A
O95        Ni101   1.978       .  S
O95         C105   1.292       .  A
O96        Ni421   1.995   1_554  S
O96         C106   1.296       .  A
O97        Ni422   1.957   1_554  S
O97         C106   1.288       .  A
O98        Ni102   1.972       .  S
O98         C105   1.293       .  A
O99        Ni422   1.921       .  S
O99         C424   1.281       .  A
O100       Ni102   1.922       .  S
O100        C103   1.281       .  A
Ni101       O413   1.917       .  S
Ni101       O416   1.976       .  S
Ni101      Ni102   2.379       .  S
Ni102       O417   1.974       .  S
Ni102       O419   1.923       .  S
C103        N330   1.428       .  S
C103        O413   1.279       .  A
C104        N158   1.430       .  S
C104        O419   1.281       .  A
C105        C281   1.544       .  S
C106        C285   1.545       .  S
O107       Ni115   1.914       .  S
O107        C117   1.278       .  A
O108       Ni115   1.912       .  S
O108        C118   1.278       .  A
O109       Ni115   1.997       .  S
O109        C119   1.296       .  A
O110       Ni115   1.997       .  S
O110        C120   1.297       .  A
O111       Ni116   1.953       .  S
O111        C120   1.287       .  A
O112       Ni116   1.952       .  S
O112        C119   1.288       .  A
O113       Ni116   1.925       .  S
O113        C118   1.281       .  A
O114       Ni116   1.927       .  S
O114        C117   1.282       .  A
Ni115      Ni116   2.379       .  S
C118        N181   1.427       .  S
C119        C282   1.543       .  S
C120        C286   1.545       .  S
O121       Ni449   1.922   1_656  S
O121        C451   1.280   1_556  A
O122       Ni129   1.913       .  S
O122        C132   1.278   1_545  A
O123       Ni129   1.996       .  S
O123        C133   1.296   1_545  A
O124       Ni449   1.959       .  S
O124        C134   1.290       .  A
O125       Ni450   1.996       .  S
O125        C134   1.296   1_565  A
O126       Ni130   1.954       .  S
O126        C133   1.288       .  A
O127       Ni450   1.917       .  S
O127        C452   1.279   1_565  A
O128       Ni130   1.928   1_655  S
O128        C131   1.282       .  A
Ni129       O441   1.916   1_455  S
Ni129       O444   1.995       .  S
Ni129      Ni130   2.379   1_545  S
Ni130       O445   1.954       .  S
Ni130       O447   1.927       .  S
C131        O441   1.279   1_565  A
C132        N204   1.429       .  S
C132        O447   1.282       .  A
C133        C273   1.544       .  S
C134        C277   1.547       .  S
O135       Ni143   1.920   1_655  S
O135        C145   1.280   1_545  A
O136       Ni143   1.921       .  S
O136        C146   1.280   1_545  A
O137       Ni143   1.979       .  S
O137        C147   1.292   1_545  A
O138       Ni143   1.974       .  S
O138        C148   1.294       .  A
O139       Ni144   1.976       .  S
O139        C148   1.291   1_565  A
O140       Ni144   1.975       .  S
O140        C147   1.294       .  A
O141       Ni144   1.917       .  S
O141        C146   1.279       .  A
O142       Ni144   1.917   1_655  S
O142        C145   1.279       .  A
Ni143      Ni144   2.379   1_545  S
C146        N227   1.427       .  S
C147        C278   1.548       .  S
C148        C274   1.545       .  S
C149        C151   1.531       .  S
C149        C153   1.534       .  S
C149        C152   1.531       .  S
C149        C268   1.439       .  S
C150        C154   1.530       .  S
C150        C156   1.530       .  S
C150        C155   1.533       .  S
C150        C269   1.441       .  S
C151        C159   1.379       .  A
C151        C474   1.386       .  A
C152        C163   1.379       .  A
C152        C475   1.388       .  A
C153        C167   1.382       .  A
C153        C476   1.385       .  A
C154        C157   1.378       .  A
C154        C471   1.386   1_554  A
C155        C161   1.379       .  A
C155        C472   1.389   1_554  A
C156        C164   1.378       .  A
C156        C473   1.386   1_554  A
C157        N478   1.357   1_554  A
C157        H170   1.082       .  S
N158        C159   1.358       .  A
N158        C477   1.358       .  A
C159        H160   1.083       .  S
C161        N482   1.358       .  A
C161        H171   1.082       .  S
N162        C163   1.358       .  A
N162        C481   1.359       .  A
N162        C264   1.409       .  S
C163        H169   1.082       .  S
C164        N485   1.357   1_554  A
C164        H166   1.083       .  S
N165        C167   1.359       .  A
N165        C484   1.357       .  A
N165        C260   1.409       .  S
C167        H168   1.083       .  S
C172        C174   1.530       .  S
C172        C176   1.530       .  S
C172        C175   1.531       .  S
C172        C272   1.441       .  S
C173        C177   1.530       .  S
C173        C179   1.532       .  S
C173        C178   1.528       .  S
C173        C265   1.439       .  S
C174        C182   1.377       .  A
C174        C177   1.386       .  A
C175        C186   1.379       .  A
C175        C178   1.385       .  A
C176        C190   1.376       .  A
C176        C179   1.390       .  A
C177        C180   1.377       .  A
C178        C184   1.378       .  A
C179        C187   1.377       .  A
C180        N181   1.358       .  A
C180        H193   1.082       .  S
N181        C182   1.357       .  A
C182        H183   1.083       .  S
C184        N185   1.356       .  A
C184        H194   1.083       .  S
N185        C186   1.357       .  A
N185        C253   1.404       .  S
C186        H192   1.083       .  S
C187        N188   1.357       .  A
C187        H189   1.083       .  S
N188        C190   1.356       .  A
N188        C249   1.402       .  S
C190        H191   1.082       .  S
C195        C197   1.529       .  S
C195        C199   1.531   1_545  S
C195        C198   1.530       .  S
C195        C245   1.441       .  S
C196        C200   1.532       .  S
C196        C202   1.530       .  S
C196        C201   1.536   1_565  S
C196        C241   1.440       .  S
C197        C205   1.377       .  A
C197        C520   1.387   1_554  A
C198        C209   1.376       .  A
C198        C521   1.390   1_554  A
C199        C213   1.379       .  A
C199        C522   1.385   1_554  A
C200        C203   1.379       .  A
C200        C517   1.386       .  A
C201        C207   1.383       .  A
C201        C518   1.387       .  A
C202        C210   1.378       .  A
C202        C519   1.386       .  A
C203        N204   1.358       .  A
C203        H216   1.082       .  S
N204        C525   1.358       .  A
C205        N524   1.356       .  A
C205        H206   1.083       .  S
C207        N208   1.359       .  A
C207        H217   1.083       .  S
N208        C529   1.357       .  A
N208        C257   1.409       .  S
C209        N528   1.357   1_554  A
C209        H215   1.082       .  S
C210        N211   1.357       .  A
C210        H212   1.082       .  S
N211        C533   1.359       .  A
N211        C261   1.408       .  S
C213        N531   1.357       .  A
C213        H214   1.083       .  S
C218        C220   1.530       .  S
C218        C222   1.528       .  S
C218        C221   1.530   1_565  S
C218        C244   1.440       .  S
C219        C223   1.531       .  S
C219        C225   1.534       .  S
C219        C224   1.528   1_565  S
C219        C248   1.442   1_565  S
C220        C228   1.377       .  A
C220        C223   1.387       .  A
C221        C232   1.378       .  A
C221        C224   1.387       .  A
C222        C236   1.375       .  A
C222        C225   1.389       .  A
C223        C226   1.378   1_565  A
C224        C230   1.376       .  A
C225        C233   1.380       .  A
C226        N227   1.357   1_545  A
C226        H239   1.082       .  S
N227        C228   1.357       .  A
C228        H229   1.083       .  S
C230        N231   1.355       .  A
C230        H240   1.083       .  S
N231        C232   1.357       .  A
N231        C252   1.402       .  S
C232        H238   1.082       .  S
C233        N234   1.359       .  A
C233        H235   1.082       .  S
N234        C236   1.355       .  A
N234        C256   1.404       .  S
C236        H237   1.083       .  S
C241        C242   1.189       .  T
C242        C243   1.385       .  S
C243        C244   1.189       .  T
C245        C246   1.190       .  T
C246        C247   1.387       .  S
C247        C248   1.191       .  T
C249        C250   1.206       .  T
C250        C251   1.412       .  S
C251        C252   1.206       .  T
C253        C254   1.208       .  T
C254        C255   1.416       .  S
C255        C256   1.208       .  T
C257        C258   1.212       .  T
C258        C259   1.422       .  S
C259        C260   1.212       .  T
C261        C262   1.211       .  T
C262        C263   1.421       .  S
C263        C264   1.212       .  T
C265        C266   1.189       .  T
C266        C267   1.384       .  S
C267        C268   1.189       .  T
C269        C270   1.190       .  T
C270        C271   1.386       .  S
C271        C272   1.190       .  T
C273        C274   1.374   1_565  D
C273        H275   1.087       .  S
C274        H276   1.086       .  S
C277        C278   1.376   1_545  D
C277        H279   1.086       .  S
C278        H280   1.086       .  S
C281        C282   1.373       .  D
C281        H283   1.086       .  S
C282        H284   1.087       .  S
C285        C286   1.372       .  D
C285        H287   1.087       .  S
C286        H288   1.087       .  S
C289        C290   1.190   1_565  T
C290        C291   1.386       .  S
C291        C292   1.190       .  T
C293        C294   1.191   1_545  T
C294        C295   1.387       .  S
C295        C296   1.191       .  T
C297        C298   1.211       .  T
C298        C299   1.420       .  S
C299        C300   1.211       .  T
C301        C302   1.211       .  T
C302        C303   1.420       .  S
C303        C304   1.211       .  T
C305        C626   1.212       .  T
C306        C625   1.209       .  T
C306        C627   1.417       .  S
C307        C308   1.212       .  T
C307        C626   1.422       .  S
C309        C630   1.210       .  T
C310        C629   1.210       .  T
C310        C631   1.419       .  S
C311        C312   1.210       .  T
C311        C630   1.419       .  S
C313        C314   1.189       .  T
C314        C315   1.385       .  S
C315        C316   1.189       .  T
C317        C318   1.190       .  T
C318        C319   1.386       .  S
C319        C320   1.190       .  T
C321        C323   1.531       .  S
C321        C325   1.535       .  S
C321        C324   1.529       .  S
C321        C633   1.442       .  S
C322        C326   1.531       .  S
C322        C328   1.528       .  S
C322        C327   1.536       .  S
C322        C637   1.441       .  S
C323        C331   1.378       .  A
C324        C335   1.377       .  A
C325        C339   1.381       .  A
C326        C329   1.378       .  A
C327        C333   1.381       .  A
C328        C336   1.377       .  A
C329        N330   1.358       .  A
C329        H342   1.083       .  S
C331        H332   1.082       .  S
C333        H343   1.082       .  S
N334        C335   1.356   1_554  A
N334        C625   1.406       .  S
C335        H341   1.083       .  S
C336        H338   1.082       .  S
N337        C339   1.359       .  A
N337        C629   1.407       .  S
C339        H340   1.083       .  S
C344        C346   1.531       .  S
C344        C348   1.531       .  S
C344        C347   1.535       .  S
C344        C640   1.441       .  S
C345        C349   1.532       .  S
C345        C351   1.535       .  S
C345        C350   1.532       .  S
C345        C636   1.442       .  S
C346        C354   1.378       .  A
C346        C349   1.386       .  A
C347        C358   1.381       .  A
C347        C350   1.387       .  A
C348        C362   1.380       .  A
C348        C351   1.387       .  A
C349        C352   1.379       .  A
C350        C356   1.379       .  A
C351        C359   1.381       .  A
C352        N353   1.358       .  A
C352        H365   1.083       .  S
N353        C354   1.357       .  A
N353        C437   1.429       .  S
C354        H355   1.082       .  S
C356        N357   1.358       .  A
C356        H366   1.082       .  S
N357        C358   1.358       .  A
N357        C620   1.409       .  S
C358        H364   1.083       .  S
C359        N360   1.358       .  A
C359        H361   1.082       .  S
N360        C362   1.358       .  A
N360        C621   1.408       .  S
C362        H363   1.083       .  S
C367        C369   1.531       .  S
C367        C371   1.534   1_545  S
C367        C370   1.529       .  S
C367        C609   1.440       .  S
C368        C372   1.532       .  S
C368        C374   1.530       .  S
C368        C373   1.536   1_565  S
C368        C613   1.438       .  S
C369        C377   1.379       .  A
C370        C381   1.377       .  A
C371        C385   1.381       .  A
C372        C375   1.380       .  A
C373        C379   1.383       .  A
C374        C382   1.377       .  A
C375        H388   1.083       .  S
N376        C377   1.358   1_554  A
N376        C451   1.430       .  S
C377        H378   1.083       .  S
C379        H389   1.083       .  S
N380        C381   1.357   1_554  A
N380        C628   1.406       .  S
C381        H387   1.083       .  S
C382        H384   1.083       .  S
N383        C385   1.358       .  A
N383        C632   1.407       .  S
C385        H386   1.083       .  S
C390        C392   1.531       .  S
C390        C394   1.529       .  S
C390        C393   1.536   1_565  S
C390        C616   1.438       .  S
C391        C395   1.532   1_545  S
C391        C397   1.537   1_545  S
C391        C396   1.529       .  S
C391        C612   1.440       .  S
C392        C400   1.379       .  A
C392        C395   1.386       .  A
C393        C404   1.384       .  A
C393        C396   1.386       .  A
C394        C408   1.377       .  A
C394        C397   1.386       .  A
C395        C398   1.378       .  A
C396        C402   1.377       .  A
C397        C405   1.384       .  A
C398        N399   1.357       .  A
C398        H411   1.085   1_565  S
N399        C400   1.358       .  A
N399        C465   1.429       .  S
C400        H401   1.081       .  S
C402        N403   1.356       .  A
C402        H412   1.081       .  S
N403        C404   1.360       .  A
N403        C617   1.409       .  S
C404        H410   1.083       .  S
C405        N406   1.360       .  A
C405        H407   1.081       .  S
N406        C408   1.356       .  A
N406        C624   1.408       .  S
C408        H409   1.084       .  S
O414       Ni421   1.917       .  S
O414        C424   1.279       .  A
O415       Ni421   1.996       .  S
O415        C425   1.296       .  A
O416        C426   1.295       .  A
O417        C426   1.290       .  A
O418       Ni422   1.957       .  S
O418        C425   1.289       .  A
O420       Ni422   1.921       .  S
O420        C423   1.281       .  A
Ni421      Ni422   2.379       .  S
C424        N478   1.427       .  S
C425        C601   1.546       .  S
C426        C605   1.546       .  S
O427       Ni435   1.920       .  S
O427        C437   1.280       .  A
O428       Ni435   1.918       .  S
O428        C438   1.280       .  A
O429       Ni435   1.978       .  S
O429        C439   1.291       .  A
O430       Ni435   1.974       .  S
O430        C440   1.294       .  A
O431       Ni436   1.980       .  S
O431        C440   1.291       .  A
O432       Ni436   1.975       .  S
O432        C439   1.294       .  A
O433       Ni436   1.918       .  S
O433        C438   1.280       .  A
O434       Ni436   1.920       .  S
O434        C437   1.280       .  A
Ni435      Ni436   2.379       .  S
C438        N501   1.427       .  S
C439        C602   1.547       .  S
C440        C606   1.546       .  S
O442       Ni449   1.919       .  S
O442        C452   1.280       .  A
O443       Ni449   1.958   1_556  S
O443        C453   1.289       .  A
O444        C454   1.296   1_545  A
O445        C454   1.288       .  A
O446       Ni450   1.996   1_556  S
O446        C453   1.296   1_565  A
O448       Ni450   1.921   1_655  S
O448        C451   1.280   1_565  A
Ni449      Ni450   2.379   1_545  S
C452        N524   1.427       .  S
C453        C593   1.546       .  S
C454        C597   1.544       .  S
O455       Ni463   1.921   1_655  S
O455        C465   1.281   1_545  A
O456       Ni463   1.921       .  S
O456        C466   1.280   1_545  A
O457       Ni463   1.971       .  S
O457        C467   1.293   1_545  A
O458       Ni463   1.975       .  S
O458        C468   1.290   1_545  A
O459       Ni464   1.978       .  S
O459        C468   1.295       .  A
O460       Ni464   1.979       .  S
O460        C467   1.292       .  A
O461       Ni464   1.920       .  S
O461        C466   1.280       .  A
O462       Ni464   1.919   1_655  S
O462        C465   1.280       .  A
Ni463      Ni464   2.379   1_545  S
C466        N547   1.428       .  S
C467        C598   1.545   1_565  S
C468        C594   1.547       .  S
C469        C471   1.529       .  S
C469        C473   1.531       .  S
C469        C472   1.528       .  S
C469        C588   1.440       .  S
C470        C474   1.532       .  S
C470        C476   1.531       .  S
C470        C475   1.536       .  S
C470        C589   1.441       .  S
C471        C479   1.377       .  A
C472        C483   1.375       .  A
C473        C487   1.379       .  A
C474        C477   1.379       .  A
C475        C481   1.382       .  A
C476        C484   1.379       .  A
C477        H490   1.082       .  S
N478        C479   1.357       .  A
C479        H480   1.083       .  S
C481        H491   1.083       .  S
N482        C483   1.356   1_554  A
N482        C584   1.403       .  S
C483        H489   1.083       .  S
C484        H486   1.082       .  S
N485        C487   1.357       .  A
N485        C580   1.405       .  S
C487        H488   1.083       .  S
C492        C494   1.530       .  S
C492        C496   1.528       .  S
C492        C495   1.533       .  S
C492        C592   1.441       .  S
C493        C497   1.530       .  S
C493        C499   1.533       .  S
C493        C498   1.527       .  S
C493        C585   1.440       .  S
C494        C502   1.377       .  A
C494        C497   1.387       .  A
C495        C506   1.380       .  A
C495        C498   1.387       .  A
C496        C510   1.375       .  A
C496        C499   1.388       .  A
C497        C500   1.377       .  A
C498        C504   1.375       .  A
C499        C507   1.380       .  A
C500        N501   1.357       .  A
C500        H513   1.082       .  S
N501        C502   1.357       .  A
C502        H503   1.083       .  S
C504        N505   1.355       .  A
C504        H514   1.083       .  S
N505        C506   1.358       .  A
N505        C573   1.403       .  S
C506        H512   1.082       .  S
C507        N508   1.358       .  A
C507        H509   1.083       .  S
N508        C510   1.355       .  A
N508        C569   1.404       .  S
C510        H511   1.082       .  S
C515        C517   1.531   1_545  S
C515        C519   1.535   1_545  S
C515        C518   1.531       .  S
C515        C565   1.439       .  S
C516        C520   1.531       .  S
C516        C522   1.528   1_545  S
C516        C521   1.534       .  S
C516        C561   1.441       .  S
C517        C525   1.378       .  A
C518        C529   1.379       .  A
C519        C533   1.382       .  A
C520        C523   1.377       .  A
C521        C527   1.379       .  A
C522        C530   1.376       .  A
C523        N524   1.358   1_556  A
C523        H536   1.082       .  S
C525        H526   1.083       .  S
C527        N528   1.358       .  A
C527        H537   1.083       .  S
N528        C577   1.404       .  S
C529        H535   1.082       .  S
C530        N531   1.356   1_556  A
C530        H532   1.083       .  S
N531        C581   1.403       .  S
C533        H534   1.083       .  S
C538        C540   1.529       .  S
C538        C542   1.529       .  S
C538        C541   1.531   1_565  S
C538        C564   1.441       .  S
C539        C543   1.531   1_545  S
C539        C545   1.533   1_545  S
C539        C544   1.529       .  S
C539        C568   1.440       .  S
C540        C548   1.377       .  A
C540        C543   1.386       .  A
C541        C552   1.378       .  A
C541        C544   1.386       .  A
C542        C556   1.376       .  A
C542        C545   1.389       .  A
C543        C546   1.378       .  A
C544        C550   1.377       .  A
C545        C553   1.378       .  A
C546        N547   1.358       .  A
C546        H559   1.082   1_565  S
N547        C548   1.357       .  A
C548        H549   1.083       .  S
C550        N551   1.356       .  A
C550        H560   1.083       .  S
N551        C552   1.357       .  A
N551        C572   1.404       .  S
C552        H558   1.082       .  S
C553        N554   1.357       .  A
C553        H555   1.083       .  S
N554        C556   1.357       .  A
N554        C576   1.404       .  S
C556        H557   1.082       .  S
C561        C562   1.190   1_545  T
C562        C563   1.386       .  S
C563        C564   1.190       .  T
C565        C566   1.189       .  T
C566        C567   1.385       .  S
C567        C568   1.189       .  T
C569        C570   1.207       .  T
C570        C571   1.415       .  S
C571        C572   1.207       .  T
C573        C574   1.207       .  T
C574        C575   1.414       .  S
C575        C576   1.207       .  T
C577        C578   1.208       .  T
C578        C579   1.416       .  S
C579        C580   1.208       .  T
C581        C582   1.207       .  T
C582        C583   1.414       .  S
C583        C584   1.207       .  T
C585        C586   1.190       .  T
C586        C587   1.386       .  S
C587        C588   1.189       .  T
C589        C590   1.190       .  T
C590        C591   1.386       .  S
C591        C592   1.190       .  T
C593        C594   1.376   1_545  D
C593        H595   1.086       .  S
C594        H596   1.086       .  S
C597        C598   1.374   1_565  D
C597        H599   1.086       .  S
C598        H600   1.086       .  S
C601        C602   1.376       .  D
C601        H603   1.086       .  S
C602        H604   1.086       .  S
C605        C606   1.378       .  D
C605        H607   1.086       .  S
C606        H608   1.086       .  S
C609        C610   1.189       .  T
C610        C611   1.385       .  S
C611        C612   1.189       .  T
C613        C614   1.188       .  T
C614        C615   1.383       .  S
C615        C616   1.188       .  T
C617        C618   1.212       .  T
C618        C619   1.422       .  S
C619        C620   1.212       .  T
C621        C622   1.212       .  T
C622        C623   1.421       .  S
C623        C624   1.212       .  T
C627        C628   1.209       .  T
C631        C632   1.210       .  T
C633        C634   1.191       .  T
C634        C635   1.387       .  S
C635        C636   1.191       .  T
C637        C638   1.190       .  T
C638        C639   1.386       .  S
C639        C640   1.190       .  T
