geometry optimzed in LAMMPS
_audit_creation_date              2020-11-30 
_audit_creation_method            'lammps2cif' 
_symmetry_space_group_name_H-M    'P1' 
_symmetry_Int_Tables_number       1 
_symmetry_cell_setting            triclinic 
loop_ 
_symmetry_equiv_pos_as_xyz 
  x,y,z 
_cell_length_a                    55.93423902 
_cell_length_b                    55.80808805840402 
_cell_length_c                    55.81763205557599 
_cell_angle_alpha                 89.8514481662655 
_cell_angle_beta                  89.83550117020451 
_cell_angle_gamma                 89.82807084864174 
loop_ 
_atom_site_label 
_atom_site_type_symbol 
_atom_site_fract_x 
_atom_site_fract_y 
_atom_site_fract_z 
_atom_site_charge 
N1          N  0.45395841  0.66876940  0.00210545    -0.27300
N2          N  0.44367774  0.64776642  0.00577891    -0.35200
C3          C  0.41986184  0.65078780  0.00728929     0.01000
C4          C  0.41465356  0.67486124  0.00421511     0.07000
C5          C  0.43677740  0.68571999  0.00095529    -0.06100
H6          H  0.40723536  0.63632754  0.00967081     0.07700
H7          H  0.44017611  0.70457028  0.99797592     0.08900
Cu8        Cu  0.46195033  0.61548980  0.00679813     0.44200
Cu9        Cu  0.49102227  0.67308975  0.99876180     0.42000
Cu10       Cu  0.52569229  0.61771751  0.99951650     0.43900
N11         N  0.48322969  0.58522605  0.00406387    -0.34700
N12         N  0.50669665  0.58605724  0.00144939    -0.29000
C13         C  0.51523227  0.56362345  0.99930384    -0.05100
C14         C  0.49616963  0.54795336  0.00052833     0.07100
C15         C  0.47614729  0.56223234  0.00356085     0.00900
H16         H  0.53386830  0.55913433  0.99658521     0.08600
H17         H  0.45776218  0.55641858  0.00495548     0.07700
N18         N  0.54071859  0.65141434  0.99677231    -0.36200
N19         N  0.52842723  0.67170322  0.99706075    -0.28300
C20         C  0.54396109  0.69013233  0.99654269    -0.03600
C21         C  0.56703550  0.68091177  0.99556201     0.05000
C22         C  0.56419671  0.65632976  0.99566870     0.03100
H23         H  0.53884444  0.70883818  0.99699975     0.08200
H24         H  0.57821818  0.64293215  0.99587566     0.07100
N25         N  0.46237363  0.39865415  0.98763691    -0.27300
N26         N  0.45072515  0.41916261  0.98990102    -0.35200
C27         C  0.42709393  0.41493551  0.99016040     0.01000
C28         C  0.42334528  0.39049659  0.98795064     0.07000
C29         C  0.44625054  0.38074550  0.98630454    -0.06100
H30         H  0.41366342  0.42881372  0.99182102     0.07700
H31         H  0.45090634  0.36198909  0.98474723     0.08900
Cu32       Cu  0.46711564  0.45224994  0.99286477     0.44200
Cu33       Cu  0.49984613  0.39681493  0.98699406     0.42000
Cu34       Cu  0.53130132  0.45429507  0.99157170     0.43900
N35         N  0.48643907  0.48373753  0.99534171    -0.34700
N36         N  0.51003791  0.48452187  0.99458600    -0.29000
C37         C  0.51712987  0.50744813  0.99628372    -0.05100
C38         C  0.49699481  0.52173581  0.99831775     0.07100
C39         C  0.47784443  0.50614065  0.99766762     0.00900
H40         H  0.53557263  0.51322928  0.99612504     0.08600
H41         H  0.45905745  0.51069364  0.99868062     0.07700
N42         N  0.54827227  0.42144944  0.98843316    -0.36200
N43         N  0.53715201  0.40066111  0.98639060    -0.28300
C44         C  0.55371495  0.38317570  0.98439873    -0.03600
C45         C  0.57628319  0.39342472  0.98547874     0.05000
C46         C  0.57202895  0.41773339  0.98804106     0.03100
H47         H  0.54959958  0.36432195  0.98280466     0.08200
H48         H  0.58520651  0.43180375  0.98936619     0.07100
N49         N  0.63384230  0.02510060  0.45835072    -0.27300
N50         N  0.61455787  0.01641988  0.44782313    -0.35200
C51         C  0.61779507  0.01669731  0.42391264     0.01000
C52         C  0.64004970  0.02633956  0.41892620     0.07000
C53         C  0.64968615  0.03153281  0.44124046    -0.06100
H54         H  0.60461356  0.01084968  0.41106620     0.07700
H55         H  0.66711996  0.03905642  0.44479136     0.08900
Cu56       Cu  0.58373859  0.00613784  0.46602961     0.44200
Cu57       Cu  0.63799608  0.02649416  0.49573891     0.42000
Cu58       Cu  0.58679965  0.00409198  0.52995673     0.43900
N59         N  0.55391554  0.00066682  0.48768639    -0.34700
N60         N  0.55504061  0.99984060  0.51131802    -0.29000
C61         C  0.53273189  0.99808061  0.52028046    -0.05100
C62         C  0.51677442  0.99788610  0.50135298     0.07100
C63         C  0.53085694  0.99947909  0.48095993     0.00900
H64         H  0.52842109  0.99792333  0.53918633     0.08600
H65         H  0.52476684  0.00064669  0.46261774     0.07700
N66         N  0.61937293  0.01319973  0.54510552    -0.36200
N67         N  0.63779355  0.02210862  0.53315780    -0.28300
C68         C  0.65532475  0.02716359  0.54893080    -0.03600
C69         C  0.64757210  0.02102668  0.57185202     0.05000
C70         C  0.62470882  0.01219642  0.56854842     0.03100
H71         H  0.67249153  0.03462566  0.54403519     0.08200
H72         H  0.61246122  0.00606628  0.58226023     0.07100
N73         N  0.36715058  0.01207911  0.47057660    -0.27300
N74         N  0.38706868  0.00948804  0.45802870    -0.35200
C75         C  0.38188341  0.01081447  0.43450651     0.01000
C76         C  0.35745058  0.01425399  0.43198136     0.07000
C77         C  0.34874791  0.01496384  0.45532701    -0.06100
H78         H  0.39494022  0.00890848  0.42030385     0.07700
H79         H  0.33039150  0.01749547  0.46090646     0.08900
Cu80       Cu  0.42045411  0.00407097  0.47348923     0.44200
Cu81       Cu  0.36600568  0.01173317  0.50799028     0.42000
Cu82       Cu  0.42310908  0.00273235  0.53817108     0.43900
N83         N  0.45215502  0.00059371  0.49261096    -0.34700
N84         N  0.45316938  0.00005808  0.51627390    -0.29000
C85         C  0.47622494  0.99854798  0.52303584    -0.05100
C86         C  0.49039885  0.99815010  0.50264818     0.07100
C87         C  0.47451995  0.99946256  0.48370274     0.00900
H88         H  0.48222345  0.99828198  0.54144230     0.08600
H89         H  0.47889079  0.00004203  0.46481980     0.07700
N90         N  0.39081193  0.00778936  0.55607611    -0.36200
N91         N  0.37014701  0.01147303  0.54517638    -0.28300
C92         C  0.35323092  0.01574914  0.56185412    -0.03600
C93         C  0.36368664  0.01464198  0.58436598     0.05000
C94         C  0.38751933  0.00941982  0.57992619     0.03100
H95         H  0.33471783  0.01966992  0.55782592     0.08200
H96         H  0.40167615  0.00788913  0.59300894     0.07100
O97         O  0.70830392  0.03614044  0.95817939    -0.73000
O98         O  0.70510722  0.03967437  0.03054507    -0.74000
O99         O  0.70907773  0.07389575  0.99233755    -0.62600
O100        O  0.70472643  0.00183138  0.99627137    -0.71000
O101        O  0.74425295  0.00007148  0.99906695    -0.70500
O102        O  0.74866110  0.07091116  0.99376298    -0.61800
O103        O  0.74473701  0.03843444  0.03186326    -0.74300
O104        O  0.74775074  0.03271176  0.96002952    -0.73100
Cu105      Cu  0.70536304  0.03795580  0.99423566     1.04600
Cu106      Cu  0.74766380  0.03541877  0.99616637     1.04300
C107        C  0.72852841  0.03380148  0.94767107     0.93200
C108        C  0.72455488  0.03994332  0.04255749     0.92400
C109        C  0.72973399  0.08365335  0.99273706     0.84500
C110        C  0.72398538  0.98965600  0.99873524     0.90800
C111        C  0.72999051  0.04806513  0.26444044     0.03100
C112        C  0.75431906  0.04955107  0.27056562    -0.13100
C113        C  0.77223104  0.04893636  0.25295405     0.00600
C114        C  0.76541292  0.04691811  0.22888336    -0.11600
C115        C  0.74124554  0.04676375  0.22206373     0.03100
C116        C  0.72348867  0.04666997  0.24007400    -0.11000
H117        H  0.75924627  0.05111276  0.28923591     0.08700
H118        H  0.77906216  0.04528846  0.21519107     0.06200
H119        H  0.70476507  0.04625823  0.23520855     0.06100
C120        C  0.73277581  0.30275784  0.98478557     0.03100
C121        C  0.72997362  0.27768566  0.98506648    -0.13100
C122        C  0.74962899  0.26239378  0.98782856     0.00600
C123        C  0.77240968  0.27226856  0.99036299    -0.11600
C124        C  0.77587012  0.29717655  0.99104618     0.03100
C125        C  0.75597353  0.31242362  0.98776468    -0.11000
H126        H  0.71228126  0.26992184  0.98424771     0.08700
H127        H  0.78765324  0.26033455  0.99181746     0.06200
H128        H  0.75851212  0.33164050  0.98795914     0.06100
O129        O  0.97256901  0.04757810  0.74490439    -0.73000
O130        O  0.04346622  0.04075233  0.74751776    -0.74000
O131        O  0.01151403  0.07985816  0.74381310    -0.62600
O132        O  0.00520080  0.00843268  0.74832431    -0.71000
O133        O  0.00744294  0.00559006  0.70872680    -0.70500
O134        O  0.01084688  0.07778600  0.70413328    -0.61800
O135        O  0.04553056  0.03977491  0.70784278    -0.74300
O136        O  0.97320911  0.04312350  0.70540059    -0.73100
Cu137      Cu  0.00808415  0.04428166  0.74745084     1.04600
Cu138      Cu  0.00930124  0.04153224  0.70507429     1.04300
C139        C  0.96159035  0.04608256  0.72494051     0.93200
C140        C  0.05578077  0.03899808  0.72832188     0.92400
C141        C  0.01208365  0.09016135  0.72334539     0.84500
C142        C  0.00584896  0.99567514  0.72934027     0.90800
C143        C  0.01454666  0.31209114  0.72969650     0.03100
C144        C  0.00888269  0.31622277  0.75392845    -0.13100
C145        C  0.00707428  0.29731335  0.77033570     0.00600
C146        C  0.01051785  0.27386571  0.76212718    -0.11600
C147        C  0.01570758  0.26904417  0.73794408     0.03100
C148        C  0.01740694  0.28830788  0.72159633    -0.11000
H149        H  0.00583330  0.33439083  0.76002466     0.08700
H150        H  0.00936937  0.25914034  0.77475198     0.06200
H151        H  0.02190069  0.28488869  0.70301914     0.06100
C152        C  0.27510137  0.03156910  0.73944245     0.03100
C153        C  0.25057016  0.02994469  0.73406445    -0.13100
C154        C  0.23332552  0.02801549  0.75217945     0.00600
C155        C  0.24098996  0.02765356  0.77604400    -0.11600
C156        C  0.26537410  0.02736854  0.78209296     0.03100
C157        C  0.28251817  0.02971013  0.76358939    -0.11000
H158        H  0.24499783  0.02960779  0.71551546     0.08700
H159        H  0.22775149  0.02777755  0.79022118     0.06200
H160        H  0.30137676  0.03009615  0.76790269     0.06100
O161        O  0.25283628  0.03184382  0.04498745    -0.73000
O162        O  0.25645434  0.02856321  0.97297469    -0.74000
O163        O  0.25513763  0.99509579  0.01096520    -0.62600
O164        O  0.25386200  0.06579468  0.00703791    -0.71000
O165        O  0.29334179  0.06748309  0.01043025    -0.70500
O166        O  0.29481112  0.99478248  0.01152361    -0.61800
O167        O  0.29597385  0.03101905  0.97451536    -0.74300
O168        O  0.29239501  0.03190024  0.04734555    -0.73100
Cu169      Cu  0.25330593  0.03035176  0.00890693     1.04600
Cu170      Cu  0.29561452  0.03132114  0.01099412     1.04300
C171        C  0.27189258  0.03193420  0.05761587     0.93200
C172        C  0.27669542  0.02943349  0.96230195     0.92400
C173        C  0.27483546  0.98362727  0.01207688     0.84500
C174        C  0.27309545  0.07794565  0.00817297     0.90800
O175        O  0.03267422  0.05686568  0.26680134    -0.73000
O176        O  0.96184174  0.05329855  0.26460979    -0.74000
O177        O  0.99498896  0.09047764  0.26671868    -0.62600
O178        O  0.99928847  0.01877226  0.26530420    -0.71000
O179        O  0.99626339  0.01727857  0.30489439    -0.70500
O180        O  0.99570303  0.08987466  0.30646750    -0.61800
O181        O  0.95975025  0.05350000  0.30430009    -0.74300
O182        O  0.03233481  0.05388226  0.30644127    -0.73100
Cu183      Cu  0.99727424  0.05479396  0.26457451     1.04600
Cu184      Cu  0.99598884  0.05354602  0.30700932     1.04300
C185        C  0.04383202  0.05609791  0.28668437     0.93200
C186        C  0.94946164  0.05366825  0.28382367     0.92400
C187        C  0.99460049  0.10152435  0.28673385     0.84500
C188        C  0.99821019  0.00659519  0.28472933     0.90800
O189        O  0.00146462  0.34004322  0.03171016    -0.73000
O190        O  0.00067645  0.33822292  0.95922835    -0.74000
O191        O  0.96492727  0.34089131  0.99570112    -0.62600
O192        O  0.03712488  0.33786985  0.99502323    -0.71000
O193        O  0.03545923  0.29820790  0.99333583    -0.70500
O194        O  0.96400883  0.30136737  0.99986919    -0.61800
O195        O  0.99647291  0.29875252  0.96113351    -0.74300
O196        O  0.00296611  0.30032553  0.03221503    -0.73100
Cu197      Cu  0.00111099  0.34071620  0.99538706     1.04600
Cu198      Cu  0.99967170  0.29833835  0.99668253     1.04300
C199        C  0.00287087  0.32027597  0.04333382     0.93200
C200        C  0.99789289  0.31801031  0.94883881     0.92400
C201        C  0.95309982  0.32147723  0.99826418     0.84500
C202        C  0.04765223  0.31754722  0.99359035     0.90800
C203        C  0.99795839  0.32162903  0.26397883     0.03100
C204        C  0.99548870  0.29828830  0.27326903    -0.13100
C205        C  0.99563138  0.27839786  0.25780314     0.00600
C206        C  0.99871838  0.28211968  0.23300975    -0.11600
C207        C  0.00163651  0.30523472  0.22345620     0.03100
C208        C  0.00162878  0.32476241  0.23923395    -0.11000
H209        H  0.99240516  0.29569012  0.29226973     0.08700
H210        H  0.99842378  0.26686925  0.22107161     0.06200
H211        H  0.00446207  0.34266028  0.23226508     0.06100
C212        C  0.26119366  0.03127139  0.28032837     0.03100
C213        C  0.26866736  0.02867575  0.25619282    -0.13100
C214        C  0.25245506  0.03318075  0.23729879     0.00600
C215        C  0.22906544  0.04066811  0.24283322    -0.11600
C216        C  0.22146739  0.04359471  0.26657210     0.03100
C217        C  0.23778690  0.03940079  0.28505180    -0.11000
H218        H  0.28649161  0.02216748  0.25215243     0.08700
H219        H  0.21644267  0.04358872  0.22842078     0.06200
H220        H  0.23211267  0.04240767  0.30337168     0.06100
C221        C  0.26882108  0.29718810  0.99859203     0.03100
C222        C  0.24510976  0.30614386  0.99723747    -0.13100
C223        C  0.22544503  0.29041149  0.99917647     0.00600
C224        C  0.22978677  0.26598378  0.00326876    -0.11600
C225        C  0.25302081  0.25671309  0.00393367     0.03100
C226        C  0.27235351  0.27245301  0.00235388    -0.11000
H227        H  0.24197543  0.32494594  0.99356910     0.08700
H228        H  0.21482300  0.25385606  0.00538875     0.06200
H229        H  0.29029347  0.26520159  0.00331879     0.06100
O230        O  0.99664328  0.77523179  0.96300118    -0.73000
O231        O  0.98596541  0.78225477  0.03261371    -0.74000
O232        O  0.02635378  0.77820277  0.00346481    -0.62600
O233        O  0.95527732  0.77836149  0.99237934    -0.71000
O234        O  0.95416613  0.73918875  0.99903380    -0.70500
O235        O  0.02605135  0.73844743  0.00480438    -0.61800
O236        O  0.98726290  0.74287395  0.03802535    -0.74300
O237        O  0.99326203  0.73569739  0.96563466    -0.73100
Cu238      Cu  0.99095452  0.77978946  0.99770424     1.04600
Cu239      Cu  0.99006997  0.73755663  0.00200751     1.04300
C240        C  0.99672661  0.75468048  0.95313548     0.93200
C241        C  0.98630206  0.76415073  0.04656082     0.92400
C242        C  0.03743589  0.75825544  0.00563166     0.84500
C243        C  0.94340468  0.75887325  0.99435650     0.90800
C244        C  0.99362044  0.78459889  0.26497368     0.03100
C245        C  0.99357053  0.78019208  0.24019813    -0.13100
C246        C  0.99259438  0.79890564  0.22349586     0.00600
C247        C  0.99245378  0.82258298  0.23189816    -0.11600
C248        C  0.99458145  0.82785001  0.25647088     0.03100
C249        C  0.99462653  0.80860628  0.27306241    -0.11000
H250        H  0.99486244  0.76192202  0.23387543     0.08700
H251        H  0.99062829  0.83711597  0.21915642     0.06200
H252        H  0.99564919  0.81223943  0.29206584     0.06100
C253        C  0.25828237  0.76457649  0.00575652     0.03100
C254        C  0.23420495  0.75707096  0.00775250    -0.13100
C255        C  0.21577355  0.77413387  0.01112439     0.00600
C256        C  0.22170776  0.79858715  0.01162173    -0.11600
C257        C  0.24549215  0.80629555  0.01047351     0.03100
C258        C  0.26356895  0.78914209  0.00783467    -0.11000
H259        H  0.22988054  0.73819659  0.00684060     0.08700
H260        H  0.20753958  0.81180416  0.01279620     0.06200
H261        H  0.28203045  0.79492139  0.00797277     0.06100
C262        C  0.99660614  0.77451236  0.73390115     0.03100
C263        C  0.99705655  0.76774497  0.75821180    -0.13100
C264        C  0.00058932  0.78465650  0.77632638     0.00600
C265        C  0.00333123  0.80875346  0.76995132    -0.11600
C266        C  0.00346125  0.81616464  0.74583314     0.03100
C267        C  0.00010277  0.79882339  0.72773150    -0.11000
H268        H  0.99532291  0.74900064  0.76301980     0.08700
H269        H  0.00485646  0.82196199  0.78404364     0.06200
H270        H  0.00016829  0.80414529  0.70906068     0.06100
C271        C  0.74216184  0.03656942  0.72498120     0.03100
C272        C  0.73434837  0.03351708  0.74899160    -0.13100
C273        C  0.75090582  0.03409024  0.76811087     0.00600
C274        C  0.77510933  0.03845106  0.76281334    -0.11600
C275        C  0.78313903  0.04095926  0.73919580     0.03100
C276        C  0.76672304  0.03970518  0.72044566    -0.11000
H277        H  0.71557887  0.03065571  0.75275311     0.08700
H278        H  0.78801077  0.03976643  0.77718295     0.06200
H279        H  0.77322239  0.04126778  0.70220794     0.06100
C280        C  0.72311822  0.76936171  0.99833822     0.03100
C281        C  0.74653927  0.76071195  0.99407417    -0.13100
C282        C  0.76568127  0.77692261  0.99116827     0.00600
C283        C  0.76116660  0.80165617  0.99309045    -0.11600
C284        C  0.73809053  0.81048031  0.99729537     0.03100
C285        C  0.71924027  0.79426106  0.99950306    -0.11000
H286        H  0.74984800  0.74161718  0.99297909     0.08700
H287        H  0.77580111  0.81419889  0.99121147     0.06200
H288        H  0.70134524  0.80115457  0.00237321     0.06100
N289        N  0.01125445  0.50728671  0.63235037    -0.27300
N290        N  0.01447763  0.49615667  0.61167297    -0.35200
C291        C  0.01558116  0.47236793  0.61553863     0.01000
C292        C  0.01323749  0.46816013  0.63985307     0.07000
C293        C  0.01056936  0.49073781  0.64995849    -0.06100
H294        H  0.01872365  0.45917266  0.60170620     0.07700
H295        H  0.00839445  0.49486059  0.66876764     0.08900
Cu296      Cu  0.01888998  0.51335345  0.57903527     0.44200
Cu297      Cu  0.00857161  0.54463785  0.63590153     0.42000
Cu298      Cu  0.02082480  0.57744206  0.58140265     0.43900
N299        N  0.02299655  0.53466988  0.54888739    -0.34700
N300        N  0.02379047  0.55830458  0.54984116    -0.29000
C301        C  0.02535848  0.56711900  0.52745768    -0.05100
C302        C  0.02555746  0.54809438  0.51165573     0.07100
C303        C  0.02408865  0.52776408  0.52584027     0.00900
H304        H  0.02559681  0.58599855  0.52303061     0.08600
H305        H  0.02318441  0.50936279  0.51986990     0.07700
N306        N  0.01414365  0.59387569  0.61393045    -0.36200
N307        N  0.00871835  0.58219770  0.63384725    -0.28300
C308        C  0.00396341  0.59837340  0.65116527    -0.03600
C309        C  0.00679979  0.62127572  0.64167937     0.05000
C310        C  0.01331374  0.61759001  0.61804738     0.03100
H311        H  0.99899755  0.59380803  0.66935645     0.08200
H312        H  0.01657031  0.63116447  0.60456890     0.07100
N313        N  0.00484251  0.51553261  0.36388815    -0.27300
N314        N  0.00971644  0.50375053  0.38385099    -0.35200
C315        C  0.00949954  0.48006846  0.37952551     0.01000
C316        C  0.00408972  0.47654194  0.35561210     0.07000
C317        C  0.00123980  0.49951564  0.34626882    -0.06100
H318        H  0.01269845  0.46646427  0.39299270     0.07700
H319        H  0.99711954  0.50431140  0.32795327     0.08900
Cu320      Cu  0.01614023  0.52020431  0.41621222     0.44200
Cu321      Cu  0.00398207  0.55297256  0.36195944     0.42000
Cu322      Cu  0.01883110  0.58419689  0.41782174     0.43900
N323        N  0.02159293  0.53920901  0.44732336    -0.34700
N324        N  0.02267254  0.56283531  0.44811676    -0.29000
C325        C  0.02498255  0.56967844  0.47109706    -0.05100
C326        C  0.02530360  0.54931312  0.48533718     0.07100
C327        C  0.02319102  0.53033720  0.46965784     0.00900
H328        H  0.02556436  0.58810408  0.47703064     0.08600
H329        H  0.02207040  0.51150548  0.47415157     0.07700
N330        N  0.01174567  0.60134279  0.38549332    -0.36200
N331        N  0.00586929  0.59025530  0.36543605    -0.28300
C332        C  0.00165943  0.60684327  0.34835765    -0.03600
C333        C  0.00515080  0.62946537  0.35805227     0.05000
C334        C  0.01157849  0.62515445  0.38164290     0.03100
H335        H  0.99668830  0.60267483  0.33013063     0.08200
H336        H  0.01545668  0.63834771  0.39522799     0.07100
C337        C  0.99320046  0.75540248  0.71563543    -0.01300
C338        C  0.97573581  0.73783013  0.71950856    -0.09400
C339        C  0.97561139  0.71669332  0.70622706    -0.18200
C340        C  0.99316920  0.71230977  0.68853379     0.04200
C341        C  0.00920713  0.73123941  0.68278571     0.18400
C342        C  0.00912901  0.75257085  0.69635540    -0.19600
C343        C  0.02587199  0.72827542  0.66424418    -0.20900
C344        C  0.02746159  0.70666903  0.65185289    -0.19400
C345        C  0.01298271  0.68719065  0.65820695     0.19800
C346        C  0.99573515  0.68967121  0.67677875     0.01900
C347        C  0.98264164  0.66905491  0.68359188    -0.14200
C348        C  0.98650812  0.64697542  0.67240468    -0.11900
C349        C  0.00309632  0.64472491  0.65372345     0.01400
C350        C  0.01610563  0.66502835  0.64655122    -0.24000
H351        H  0.96268146  0.74000482  0.73373071     0.09500
H352        H  0.96183624  0.70391993  0.71053734     0.13000
H353        H  0.02246987  0.76621618  0.69293585     0.11700
H354        H  0.03797554  0.74266181  0.65948996     0.12900
H355        H  0.04067268  0.70493197  0.63771878     0.12000
H356        H  0.96977007  0.66924784  0.69798183     0.09000
H357        H  0.97622279  0.63161859  0.67826020     0.12300
H358        H  0.02927706  0.66340545  0.63236548     0.14200
C359        C  0.99330697  0.76355157  0.28164128    -0.01300
C360        C  0.00777962  0.76267414  0.30207667    -0.09400
C361        C  0.00950909  0.74165496  0.31583930    -0.18200
C362        C  0.99688959  0.72062039  0.30944666     0.04200
C363        C  0.98184870  0.72181111  0.28901716     0.18400
C364        C  0.97984812  0.74314533  0.27577868    -0.19600
C365        C  0.96927244  0.70153508  0.28149081    -0.20900
C366        C  0.97158890  0.67986400  0.29358893    -0.19400
C367        C  0.98627250  0.67796511  0.31375571     0.19800
C368        C  0.99887253  0.69836947  0.32224068     0.01900
C369        C  0.01292434  0.69550687  0.34308603    -0.14200
C370        C  0.01464692  0.67331296  0.35471188    -0.11900
C371        C  0.00269130  0.65312230  0.34591790     0.01400
C372        C  0.98842953  0.65568754  0.32544866    -0.24000
H373        H  0.01852496  0.77799572  0.30697834     0.09500
H374        H  0.02136359  0.74223347  0.33099439     0.13000
H375        H  0.96811967  0.74365109  0.26034541     0.11700
H376        H  0.95781774  0.70234022  0.26587463     0.12900
H377        H  0.96183625  0.66445189  0.28708596     0.12000
H378        H  0.02276714  0.71008378  0.35086981     0.09000
H379        H  0.02580483  0.67192335  0.37046693     0.12300
H380        H  0.97874108  0.64035379  0.31867870     0.14200
C381        C  0.06356702  0.75830214  0.00923380    -0.01300
C382        C  0.07387554  0.77533208  0.02432059    -0.09400
C383        C  0.09862902  0.77635137  0.02726054    -0.18200
C384        C  0.11402522  0.76066674  0.01457278     0.04200
C385        C  0.10345041  0.74360656  0.99899979     0.18400
C386        C  0.07839474  0.74214729  0.99697560    -0.19600
C387        C  0.11798180  0.72869257  0.98497029    -0.20900
C388        C  0.14278804  0.73097679  0.98536287    -0.19400
C389        C  0.15377001  0.74765951  0.00043234     0.19800
C390        C  0.13952107  0.76203378  0.01595839     0.01900
C391        C  0.15142098  0.77740896  0.03199370    -0.14200
C392        C  0.17619015  0.77992254  0.03121348    -0.11900
C393        C  0.19012348  0.76744237  0.01437477     0.01400
C394        C  0.17885084  0.75056871  0.99963389    -0.24000
H395        H  0.06267175  0.78796198  0.03393047     0.09500
H396        H  0.10519060  0.79018695  0.03893940     0.13000
H397        H  0.07044119  0.72914977  0.98499733     0.11700
H398        H  0.11007220  0.71566177  0.97302061     0.12900
H399        H  0.15345214  0.71971763  0.97367849     0.12000
H400        H  0.14208044  0.78783828  0.04529371     0.09000
H401        H  0.18449370  0.79234048  0.04352203     0.12300
H402        H  0.18940418  0.74053454  0.98678257     0.14200
C403        C  0.98717948  0.76871323  0.07258098    -0.01300
C404        C  0.99734007  0.79021212  0.08041028    -0.09400
C405        C  0.99911882  0.79547186  0.10464206    -0.18200
C406        C  0.99047917  0.77938428  0.12214241     0.04200
C407        C  0.97971940  0.75771555  0.11422031     0.18400
C408        C  0.97855243  0.75234461  0.08957247    -0.19600
C409        C  0.96996217  0.74176076  0.13095407    -0.20900
C410        C  0.97031969  0.74705318  0.15531824    -0.19400
C411        C  0.98101168  0.76812754  0.16360902     0.19800
C412        C  0.99175465  0.78430894  0.14718315     0.01900
C413        C  0.00343153  0.80468078  0.15653404    -0.14200
C414        C  0.00379440  0.80911819  0.18108939    -0.11900
C415        C  0.99230397  0.79370896  0.19727505     0.01400
C416        C  0.98100067  0.77312808  0.18827790    -0.24000
H417        H  0.00431792  0.80310468  0.06764333     0.09500
H418        H  0.00697815  0.81246283  0.10898337     0.13000
H419        H  0.97051902  0.73574644  0.08361596     0.11700
H420        H  0.96166764  0.72525081  0.12514068     0.12900
H421        H  0.96228789  0.73450252  0.16778030     0.12000
H422        H  0.01285445  0.81732284  0.14545978     0.09000
H423        H  0.01348589  0.82463715  0.18738127     0.12300
H424        H  0.97187365  0.76102982  0.20040730     0.14200
C425        C  0.91709840  0.75918958  0.99106975    -0.01300
C426        C  0.90654907  0.77678295  0.97662484    -0.09400
C427        C  0.88180952  0.77766908  0.97351912    -0.18200
C428        C  0.86657411  0.76122293  0.98534022     0.04200
C429        C  0.87725607  0.74362730  0.00036223     0.18400
C430        C  0.90234323  0.74236845  0.00260692    -0.19600
C431        C  0.86277523  0.72800105  0.01367971    -0.20900
C432        C  0.83793294  0.73033157  0.01334403    -0.19400
C433        C  0.82689372  0.74772268  0.99895980     0.19800
C434        C  0.84108980  0.76253287  0.98382080     0.01900
C435        C  0.82916123  0.77846697  0.96820726    -0.14200
C436        C  0.80447713  0.78157954  0.96954577    -0.11900
C437        C  0.79071878  0.76898744  0.98640192     0.01400
C438        C  0.80187953  0.75114624  0.00025283    -0.24000
H439        H  0.91753228  0.78997054  0.96756065     0.09500
H440        H  0.87510488  0.79200955  0.96244392     0.13000
H441        H  0.91033521  0.72888508  0.01410352     0.11700
H442        H  0.87073842  0.71449762  0.02515605     0.12900
H443        H  0.82730037  0.71865098  0.02465557     0.12000
H444        H  0.83846196  0.78904331  0.95497965     0.09000
H445        H  0.79615517  0.79471577  0.95790240     0.12300
H446        H  0.79137136  0.74095395  0.01303823     0.14200
C447        C  0.00075737  0.75369023  0.92704337    -0.01300
C448        C  0.98681984  0.73911690  0.91235813    -0.09400
C449        C  0.98754287  0.74189172  0.88741832    -0.18200
C450        C  0.00244403  0.75932597  0.87651497     0.04200
C451        C  0.01803516  0.77253286  0.89155651     0.18400
C452        C  0.01690426  0.76974607  0.91650350    -0.19600
C453        C  0.03407519  0.78907061  0.88170705    -0.20900
C454        C  0.03443017  0.79343250  0.85719743    -0.19400
C455        C  0.01836895  0.78177614  0.84202252     0.19800
C456        C  0.00214075  0.76452973  0.85140155     0.01900
C457        C  0.98575380  0.75395365  0.83535993    -0.14200
C458        C  0.98544584  0.76032420  0.81112283    -0.11900
C459        C  0.00148705  0.77730568  0.80197061     0.01400
C460        C  0.01810022  0.78771439  0.81756365    -0.24000
H461        H  0.97439839  0.72646164  0.92021833     0.09500
H462        H  0.97595229  0.73044423  0.87717705     0.13000
H463        H  0.02809254  0.78073291  0.92788245     0.11700
H464        H  0.04621741  0.79895373  0.89308712     0.12900
H465        H  0.04689797  0.80652463  0.85015299     0.12000
H466        H  0.97252317  0.74115711  0.84112775     0.09000
H467        H  0.97217513  0.75229002  0.79957580     0.12300
H468        H  0.03080176  0.80067877  0.81065946     0.14200
C469        C  0.99564720  0.34317449  0.27944474    -0.01300
C470        C  0.98216657  0.36278344  0.27136781    -0.09400
C471        C  0.98167355  0.38422508  0.28405427    -0.18200
C472        C  0.99484507  0.38693069  0.30542282     0.04200
C473        C  0.00723510  0.36653425  0.31447425     0.18400
C474        C  0.00752730  0.34489577  0.30147559    -0.19600
C475        C  0.01970801  0.36808836  0.33612933    -0.20900
C476        C  0.02063099  0.38961597  0.34867933    -0.19400
C477        C  0.00947365  0.41026937  0.33968186     0.19800
C478        C  0.99642842  0.40920956  0.31789935     0.01900
C479        C  0.98615610  0.43069063  0.30914480    -0.14200
C480        C  0.98877451  0.45225731  0.32140256    -0.11900
C481        C  0.00148740  0.45331225  0.34292312     0.01400
C482        C  0.01164931  0.43211581  0.35207753    -0.24000
H483        H  0.97212046  0.36162763  0.25484061     0.09500
H484        H  0.97090762  0.39838905  0.27651992     0.13000
H485        H  0.01777542  0.32972852  0.30802029     0.11700
H486        H  0.02900883  0.35260080  0.34330089     0.12900
H487        H  0.03057739  0.39023410  0.36530431     0.12000
H488        H  0.97630973  0.43158032  0.29260832     0.09000
H489        H  0.98056056  0.46820338  0.31396207     0.12300
H490        H  0.02178401  0.43266241  0.36858744     0.14200
C491        C  0.20019121  0.29828119  0.99545037    -0.01300
C492        C  0.19072604  0.31863241  0.00669524    -0.09400
C493        C  0.16616826  0.32384264  0.00535313    -0.18200
C494        C  0.15025321  0.30859386  0.99285657     0.04200
C495        C  0.16017755  0.28837121  0.98100074     0.18400
C496        C  0.18480084  0.28379863  0.98195336    -0.19600
C497        C  0.14542112  0.27225474  0.96888106    -0.20900
C498        C  0.12078498  0.27523375  0.96900011    -0.19400
C499        C  0.11030779  0.29472811  0.98074217     0.19800
C500        C  0.12485577  0.31213583  0.99223093     0.01900
C501        C  0.11324120  0.33208485  0.00275099    -0.14200
C502        C  0.08827059  0.33412648  0.00260905    -0.11900
C503        C  0.07407882  0.31624311  0.99235856     0.01400
C504        C  0.08527783  0.29674153  0.98122950    -0.24000
H505        H  0.20217350  0.33005246  0.01729470     0.09500
H506        H  0.16003683  0.33944142  0.01493719     0.13000
H507        H  0.19196994  0.26827236  0.97271012     0.11700
H508        H  0.15295195  0.25683233  0.95977948     0.12900
H509        H  0.10982263  0.26208044  0.95995721     0.12000
H510        H  0.12298698  0.34637309  0.01121106     0.09000
H511        H  0.07999517  0.34949054  0.01112681     0.12300
H512        H  0.07443392  0.28305968  0.97282291     0.14200
C513        C  0.00341385  0.30912656  0.19699630    -0.01300
C514        C  0.99279123  0.32931480  0.18632243    -0.09400
C515        C  0.99338495  0.33270177  0.16153224    -0.18200
C516        C  0.00437476  0.31573278  0.14628806     0.04200
C517        C  0.01528865  0.29536069  0.15710469     0.18400
C518        C  0.01494288  0.29239699  0.18213633    -0.19600
C519        C  0.02621860  0.27785381  0.14285964    -0.20900
C520        C  0.02611286  0.27984859  0.11803935    -0.19400
C521        C  0.01527281  0.29951659  0.10682418     0.19800
C522        C  0.00456540  0.31797916  0.12073216     0.01900
C523        C  0.99435867  0.33771404  0.10838240    -0.14200
C524        C  0.99437536  0.33875238  0.08333323    -0.11900
C525        C  0.00426572  0.32011313  0.06979718     0.01400
C526        C  0.01486680  0.30066253  0.08169891    -0.24000
H527        H  0.98332625  0.34237796  0.19708932     0.09500
H528        H  0.98461449  0.34856318  0.15484037     0.13000
H529        H  0.02366162  0.27691647  0.19001640     0.11700
H530        H  0.03462531  0.26230697  0.15096312     0.12900
H531        H  0.03445024  0.26580577  0.10752087     0.12000
H532        H  0.98613862  0.35259153  0.11753381     0.09000
H533        H  0.98607011  0.35394000  0.07451075     0.12300
H534        H  0.02283228  0.28627912  0.07132971     0.14200
C535        C  0.19603175  0.04945627  0.27198125    -0.01300
C536        C  0.18335787  0.06560894  0.25752432    -0.09400
C537        C  0.15888278  0.06925743  0.26084193    -0.18200
C538        C  0.14614084  0.05676840  0.27887061     0.04200
C539        C  0.15932237  0.04162463  0.29452895     0.18400
C540        C  0.18393379  0.03796046  0.29085730    -0.19600
C541        C  0.14775081  0.02978308  0.31341050    -0.20900
C542        C  0.12318794  0.03215345  0.31670971    -0.19400
C543        C  0.10947176  0.04582406  0.30077175     0.19800
C544        C  0.12077386  0.05833866  0.28159871     0.01900
C545        C  0.10607455  0.07095730  0.26531416    -0.14200
C546        C  0.08126357  0.07047249  0.26750546    -0.11900
C547        C  0.07018055  0.05795145  0.28624366     0.01400
C548        C  0.08440365  0.04622826  0.30326364    -0.24000
H549        H  0.19238114  0.07534433  0.24334568     0.09500
H550        H  0.15045990  0.08193262  0.24895136     0.13000
H551        H  0.19346897  0.02539063  0.30220910     0.11700
H552        H  0.15773869  0.01841814  0.32559264     0.12900
H553        H  0.11475380  0.02257508  0.33136590     0.12000
H554        H  0.11311123  0.08063179  0.25014624     0.09000
H555        H  0.07061554  0.07980241  0.25421780     0.12300
H556        H  0.07591003  0.03634508  0.31769356     0.14200
C557        C  0.99224605  0.12789465  0.28662832    -0.01300
C558        C  0.00404377  0.14225275  0.30337419    -0.09400
C559        C  0.00301571  0.16732798  0.30163867    -0.18200
C560        C  0.98979225  0.17871309  0.28318180     0.04200
C561        C  0.97671892  0.16384065  0.26725777     0.18400
C562        C  0.97827934  0.13884443  0.26896798    -0.19600
C563        C  0.96257146  0.17392232  0.24924335    -0.20900
C564        C  0.96201632  0.19851467  0.24579724    -0.19400
C565        C  0.97586254  0.21360139  0.26006578     0.19800
C566        C  0.98957543  0.20412214  0.27933029     0.01900
C567        C  0.00317494  0.22044429  0.29308115    -0.14200
C568        C  0.00433557  0.24479042  0.28684009    -0.11900
C569        C  0.99183574  0.25360785  0.26692539     0.01400
C570        C  0.97684665  0.23803400  0.25436017    -0.24000
H571        H  0.01472937  0.13406636  0.31735636     0.09500
H572        H  0.01294977  0.17732643  0.31476416     0.13000
H573        H  0.96866077  0.12776633  0.25630342     0.11700
H574        H  0.95226306  0.16264974  0.23734778     0.12900
H575        H  0.95133313  0.20571542  0.23128051     0.12000
H576        H  0.01378179  0.21475683  0.30817680     0.09000
H577        H  0.01588214  0.25653420  0.29697859     0.12300
H578        H  0.96654121  0.24483984  0.23936511     0.14200
C579        C  0.99938299  0.98002147  0.28353100    -0.01300
C580        C  0.98859812  0.96548569  0.30100481    -0.09400
C581        C  0.98859069  0.94041285  0.29870763    -0.18200
C582        C  0.99968288  0.92905990  0.27887122     0.04200
C583        C  0.01137805  0.94399715  0.26179480     0.18400
C584        C  0.01100036  0.96903098  0.26420604    -0.19600
C585        C  0.02308005  0.93394854  0.24205825    -0.20900
C586        C  0.02283693  0.90938172  0.23837763    -0.19400
C587        C  0.01082278  0.89417522  0.25430140     0.19800
C588        C  0.99931106  0.90360693  0.27497536     0.01900
C589        C  0.98762004  0.88712794  0.29040575    -0.14200
C590        C  0.98654611  0.86256462  0.28489402    -0.11900
C591        C  0.99721658  0.85353954  0.26396416     0.01400
C592        C  0.00994611  0.86956606  0.24925811    -0.24000
H593        H  0.97957415  0.97355670  0.31618720     0.09500
H594        H  0.97957690  0.93038609  0.31256100     0.13000
H595        H  0.01974773  0.98009080  0.25080100     0.11700
H596        H  0.03221832  0.94523429  0.22912908     0.12900
H597        H  0.03176950  0.90225201  0.22266486     0.12000
H598        H  0.97871266  0.89279223  0.30658772     0.09000
H599        H  0.97668193  0.85076286  0.29671210     0.12300
H600        H  0.01910700  0.86290228  0.23346880     0.14200
C601        C  0.25679217  0.23038117  0.00382760    -0.01300
C602        C  0.24207569  0.21605548  0.98957680    -0.09400
C603        C  0.24488057  0.19132561  0.98907651    -0.18200
C604        C  0.26274418  0.17991497  0.00286583     0.04200
C605        C  0.27851339  0.19449392  0.01636283     0.18400
C606        C  0.27528217  0.21949906  0.01692723    -0.19600
C607        C  0.29731920  0.18398336  0.02919808    -0.20900
C608        C  0.30065870  0.15923759  0.02905012    -0.19400
C609        C  0.28486072  0.14436345  0.01662616     0.19800
C610        C  0.26548177  0.15454346  0.00362546     0.01900
C611        C  0.24918324  0.13889196  0.99244662    -0.14200
C612        C  0.25207915  0.11422386  0.99399443    -0.11900
C613        C  0.27136737  0.10420787  0.00638722     0.01400
C614        C  0.28792172  0.11932288  0.01750335    -0.24000
H615        H  0.22837496  0.22403478  0.97840843     0.09500
H616        H  0.23303352  0.18180529  0.97740653     0.13000
H617        H  0.28698697  0.23043769  0.02779523     0.11700
H618        H  0.30957620  0.19498875  0.03936240     0.12900
H619        H  0.31542420  0.15164672  0.03910099     0.12000
H620        H  0.23367352  0.14499341  0.98292405     0.09000
H621        H  0.23902867  0.10287800  0.98533447     0.12300
H622        H  0.30268404  0.11159305  0.02746903     0.14200
C623        C  0.26986610  0.03126253  0.08422093    -0.01300
C624        C  0.24998986  0.02025500  0.09481240    -0.09400
C625        C  0.24771510  0.01859972  0.11967758    -0.18200
C626        C  0.26516365  0.02835597  0.13511013     0.04200
C627        C  0.28498117  0.04024377  0.12442266     0.18400
C628        C  0.28739823  0.04121219  0.09919286    -0.19600
C629        C  0.30206210  0.05127927  0.13902522    -0.20900
C630        C  0.29971643  0.05104655  0.16394371    -0.19400
C631        C  0.28051005  0.03930426  0.17503253     0.19800
C632        C  0.26329360  0.02727981  0.16071709     0.01900
C633        C  0.24480443  0.01482603  0.17266938    -0.14200
C634        C  0.24249965  0.01570369  0.19752667    -0.11900
C635        C  0.25845864  0.02889990  0.21158411     0.01400
C636        C  0.27798334  0.04002253  0.20027852    -0.24000
H637        H  0.23617503  0.01246190  0.08373170     0.09500
H638        H  0.23181695  0.00987803  0.12625150     0.13000
H639        H  0.30269140  0.05009592  0.09120693     0.11700
H640        H  0.31717013  0.06051014  0.13109695     0.12900
H641        H  0.31300638  0.06018416  0.17462210     0.12000
H642        H  0.23163273  0.00438740  0.16330281     0.09000
H643        H  0.22757355  0.00651689  0.20585651     0.12300
H644        H  0.29050299  0.05018227  0.21097660     0.14200
C645        C  0.27356001  0.95739033  0.01482912    -0.01300
C646        C  0.25468631  0.94796989  0.02832594    -0.09400
C647        C  0.25073328  0.92345181  0.02947640    -0.18200
C648        C  0.26542468  0.90728462  0.01672977     0.04200
C649        C  0.28492299  0.91679894  0.00330803     0.18400
C650        C  0.28913720  0.94172978  0.00285806    -0.19600
C651        C  0.29943120  0.90143030  0.98976189    -0.20900
C652        C  0.29450397  0.87698798  0.98862789    -0.19400
C653        C  0.27529985  0.86719662  0.00149075     0.19800
C654        C  0.26089895  0.88213542  0.01622555     0.01900
C655        C  0.24240718  0.87129166  0.02970483    -0.14200
C656        C  0.23787777  0.84685356  0.02797870    -0.11900
C657        C  0.25133527  0.83224091  0.01263331     0.01400
C658        C  0.27026848  0.84256763  0.99960320    -0.24000
H659        H  0.24253689  0.95977477  0.03782827     0.09500
H660        H  0.23549247  0.91790518  0.03988034     0.13000
H661        H  0.30366218  0.94899518  0.99219709     0.11700
H662        H  0.31433760  0.90844677  0.97948689     0.12900
H663        H  0.30574400  0.86567342  0.97754464     0.12000
H664        H  0.23123138  0.88107047  0.04199463     0.09000
H665        H  0.22376633  0.83934881  0.03898046     0.12300
H666        H  0.28087344  0.83155370  0.98762887     0.14200
C667        C  0.27183090  0.02477666  0.80797197    -0.01300
C668        C  0.28978374  0.03861504  0.81859522    -0.09400
C669        C  0.29267520  0.03883025  0.84362110    -0.18200
C670        C  0.27724289  0.02555011  0.85885718     0.04200
C671        C  0.25954565  0.01112595  0.84782574     0.18400
C672        C  0.25772511  0.01012919  0.82281992    -0.19600
C673        C  0.24294412  0.99853824  0.86175771    -0.20900
C674        C  0.24299101  0.00052606  0.88653133    -0.19400
C675        C  0.26027630  0.01433093  0.89809370     0.19800
C676        C  0.27813042  0.02649640  0.88455061     0.01900
C677        C  0.29598383  0.03894890  0.89740758    -0.14200
C678        C  0.29581136  0.03953075  0.92256748    -0.11900
C679        C  0.27755880  0.02831457  0.93569006     0.01400
C680        C  0.25983924  0.01582221  0.92322587    -0.24000
H681        H  0.30091766  0.05015186  0.80765816     0.09500
H682        H  0.30637193  0.05039636  0.85061654     0.13000
H683        H  0.24424012  0.99873188  0.81487588     0.11700
H684        H  0.22932528  0.98763360  0.85338890     0.12900
H685        H  0.22948210  0.99103559  0.89674487     0.12000
H686        H  0.31045733  0.04808117  0.88848716     0.09000
H687        H  0.30979671  0.04918839  0.93179466     0.12300
H688        H  0.24586900  0.00673883  0.93320314     0.14200
C689        C  0.01846284  0.33323172  0.71387297    -0.01300
C690        C  0.03175066  0.35255103  0.72265622    -0.09400
C691        C  0.03264129  0.37425852  0.71038872    -0.18200
C692        C  0.02026097  0.37745034  0.68863320     0.04200
C693        C  0.00885288  0.35716299  0.67841629     0.18400
C694        C  0.00780354  0.33529485  0.69119853    -0.19600
C695        C  0.99821515  0.35910100  0.65579036    -0.20900
C696        C  0.99839980  0.38082800  0.64334474    -0.19400
C697        C  0.00819050  0.40144417  0.65370492     0.19800
C698        C  0.01879901  0.40010011  0.67675614     0.01900
C699        C  0.02659675  0.42166081  0.68742834    -0.14200
C700        C  0.02440907  0.44355575  0.67550588    -0.11900
C701        C  0.01486493  0.44475142  0.65240024     0.01400
C702        C  0.00692929  0.42355454  0.64148677    -0.24000
H703        H  0.04105594  0.35105641  0.73960109     0.09500
H704        H  0.04320272  0.38822101  0.71837810     0.13000
H705        H  0.99791610  0.32029234  0.68398483     0.11700
H706        H  0.98974425  0.34371291  0.64764547     0.12900
H707        H  0.99016152  0.38168271  0.62581261     0.12000
H708        H  0.03380014  0.42230307  0.70529850     0.09000
H709        H  0.03055934  0.45963375  0.68435237     0.12300
H710        H  0.99907009  0.42438592  0.62377488     0.14200
C711        C  0.00248206  0.30193570  0.79621651    -0.01300
C712        C  0.98819330  0.28624437  0.80964113    -0.09400
C713        C  0.98536615  0.28922249  0.83428064    -0.18200
C714        C  0.99676422  0.30817166  0.84648464     0.04200
C715        C  0.01019697  0.32481385  0.83265584     0.18400
C716        C  0.01305157  0.32149413  0.80785684    -0.19600
C717        C  0.02111621  0.34440341  0.84373778    -0.20900
C718        C  0.01943905  0.34755115  0.86839868    -0.19400
C719        C  0.00721642  0.33092417  0.88265693     0.19800
C720        C  0.99567128  0.31098241  0.87189876     0.01900
C721        C  0.98426794  0.29427062  0.88714686    -0.14200
C722        C  0.98484602  0.29691643  0.91194694    -0.11900
C723        C  0.99633593  0.31648370  0.92247297     0.01400
C724        C  0.00708035  0.33371714  0.90770259    -0.24000
H725        H  0.97916060  0.27144718  0.80105395     0.09500
H726        H  0.97412198  0.27632506  0.84325287     0.13000
H727        H  0.02422477  0.33376691  0.79777088     0.11700
H728        H  0.03120468  0.35728335  0.83327986     0.12900
H729        H  0.02826408  0.36279348  0.87644121     0.12000
H730        H  0.97528107  0.27855682  0.88053383     0.09000
H731        H  0.97629174  0.28342714  0.92301244     0.12300
H732        H  0.01618025  0.34880893  0.91575027     0.14200
C733        C  0.08190553  0.03534522  0.73039390    -0.01300
C734        C  0.09106733  0.02514917  0.75142592    -0.09400
C735        C  0.11551081  0.02148076  0.75428239    -0.18200
C736        C  0.13185340  0.02844489  0.73628248     0.04200
C737        C  0.12266781  0.03950242  0.71523731     0.18400
C738        C  0.09779414  0.04220284  0.71214410    -0.19600
C739        C  0.13843440  0.04854682  0.69791169    -0.20900
C740        C  0.16305574  0.04795593  0.70170117    -0.19400
C741        C  0.17253329  0.03712266  0.72227624     0.19800
C742        C  0.15706113  0.02599149  0.73910273     0.01900
C743        C  0.16746051  0.01299782  0.75814966    -0.14200
C744        C  0.19210584  0.01296045  0.76159552    -0.11900
C745        C  0.20730020  0.02619333  0.74652644     0.01400
C746        C  0.19733348  0.03767540  0.72639899    -0.24000
H747        H  0.07920702  0.01982391  0.76585333     0.09500
H748        H  0.12113777  0.01403343  0.77118525     0.13000
H749        H  0.09087674  0.05049575  0.69599587     0.11700
H750        H  0.13166104  0.05701463  0.68180191     0.12900
H751        H  0.17475259  0.05603692  0.68846878     0.12000
H752        H  0.15700722  0.00241810  0.77047959     0.09000
H753        H  0.19922565  0.00254984  0.77635205     0.12300
H754        H  0.20867215  0.04768308  0.71423770     0.14200
C755        C  0.01947715  0.24363458  0.73073080    -0.01300
C756        C  0.00747505  0.23371014  0.71113641    -0.09400
C757        C  0.00743836  0.20881929  0.70746616    -0.18200
C758        C  0.01926597  0.19308485  0.72356295     0.04200
C759        C  0.03249438  0.20353318  0.74256039     0.18400
C760        C  0.03285368  0.22843371  0.74560796    -0.19600
C761        C  0.04449782  0.18908613  0.75915254    -0.20900
C762        C  0.04291687  0.16433782  0.75795156    -0.19400
C763        C  0.02954144  0.15339116  0.73994637     0.19800
C764        C  0.01794235  0.16746103  0.72209932     0.01900
C765        C  0.00522387  0.15517359  0.70399128    -0.14200
C766        C  0.00375993  0.13007306  0.70400034    -0.11900
C767        C  0.01452122  0.11653700  0.72221806     0.01400
C768        C  0.02751024  0.12835649  0.73997246    -0.24000
H769        H  0.99707780  0.24509552  0.69933995     0.09500
H770        H  0.99727909  0.20234893  0.69243658     0.13000
H771        H  0.04268098  0.23601328  0.76049792     0.11700
H772        H  0.05467906  0.19700441  0.77359311     0.12900
H773        H  0.05198439  0.15367414  0.77142265     0.12000
H774        H  0.99616398  0.16448165  0.68969085     0.09000
H775        H  0.99366243  0.12124876  0.69005262     0.12300
H776        H  0.03618819  0.11794747  0.75391656     0.14200
C777        C  0.00673960  0.84219299  0.74049681    -0.01300
C778        C  0.02232783  0.85575272  0.75469988    -0.09400
C779        C  0.02290170  0.88064189  0.75307600    -0.18200
C780        C  0.00815897  0.89302936  0.73672183     0.04200
C781        C  0.99408002  0.87927277  0.72068809     0.18400
C782        C  0.99318684  0.85408358  0.72292069    -0.19600
C783        C  0.98084348  0.89083970  0.70276668    -0.20900
C784        C  0.98148707  0.91572019  0.70035883    -0.19400
C785        C  0.99437906  0.92975277  0.71658983     0.19800
C786        C  0.00721140  0.91857123  0.73551680     0.01900
C787        C  0.01799348  0.93342118  0.75287021    -0.14200
C788        C  0.01690881  0.95831330  0.75094443    -0.11900
C789        C  0.00556329  0.96928008  0.73147446     0.01400
C790        C  0.99428329  0.95491559  0.71429906    -0.24000
H791        H  0.03389050  0.84706015  0.76763069     0.09500
H792        H  0.03531991  0.88970851  0.76466816     0.13000
H793        H  0.98132826  0.84387500  0.71153536     0.11700
H794        H  0.97017620  0.88055221  0.69031820     0.12900
H795        H  0.97139885  0.92407620  0.68603709     0.12000
H796        H  0.02689002  0.92631433  0.76846703     0.09000
H797        H  0.02546973  0.96908285  0.76456540     0.12300
H798        H  0.98497347  0.96335269  0.69948908     0.14200
C799        C  0.93528320  0.04781405  0.72478941    -0.01300
C800        C  0.92378673  0.06323758  0.74083635    -0.09400
C801        C  0.89891822  0.06437195  0.74196522    -0.18200
C802        C  0.88461761  0.04948755  0.72742456     0.04200
C803        C  0.89639875  0.03359121  0.71133534     0.18400
C804        C  0.92152534  0.03330228  0.70975181    -0.19600
C805        C  0.88306064  0.01756327  0.69752805    -0.20900
C806        C  0.85829460  0.01655238  0.69980456    -0.19400
C807        C  0.84619761  0.03193892  0.71550571     0.19800
C808        C  0.85913324  0.04910535  0.72904073     0.01900
C809        C  0.84600949  0.06482480  0.74398697    -0.14200
C810        C  0.82135542  0.06243782  0.74669558    -0.11900
C811        C  0.80888828  0.04467743  0.73433785     0.01400
C812        C  0.82128123  0.02991330  0.71822903    -0.24000
H813        H  0.93414692  0.07453186  0.75264920     0.09500
H814        H  0.89149340  0.07654952  0.75495983     0.13000
H815        H  0.93041293  0.02102456  0.69759212     0.11700
H816        H  0.89189395  0.00530791  0.68532858     0.12900
H817        H  0.84854287  0.00350361  0.68933215     0.12000
H818        H  0.85426282  0.07904475  0.75398380     0.09000
H819        H  0.81194712  0.07442843  0.75873135     0.12300
H820        H  0.81162145  0.01623092  0.70848210     0.14200
C821        C  0.80048560  0.30634096  0.99563217    -0.01300
C822        C  0.81039830  0.32517246  0.98224885    -0.09400
C823        C  0.83488273  0.33053734  0.98394287    -0.18200
C824        C  0.85027421  0.31680727  0.99879979     0.04200
C825        C  0.83973714  0.29853957  0.01309904     0.18400
C826        C  0.81514622  0.29412259  0.01197620    -0.19600
C827        C  0.85390724  0.28382412  0.02760823    -0.20900
C828        C  0.87857444  0.28602589  0.02743595    -0.19400
C829        C  0.88965774  0.30348998  0.01331722     0.19800
C830        C  0.87574995  0.31972467  0.99938407     0.01900
C831        C  0.88809451  0.33773028  0.98641672    -0.14200
C832        C  0.91317272  0.33888381  0.98666113    -0.11900
C833        C  0.92664568  0.32191749  0.99941978     0.01400
C834        C  0.91469516  0.30450375  0.01289414    -0.24000
H835        H  0.79948158  0.33500824  0.96957799     0.09500
H836        H  0.84147530  0.34474687  0.97261320     0.13000
H837        H  0.80755410  0.28003970  0.02303484     0.11700
H838        H  0.84590798  0.26988822  0.03854149     0.12900
H839        H  0.88908768  0.27381360  0.03828873     0.12000
H840        H  0.87883740  0.35106848  0.97592295     0.09000
H841        H  0.92207325  0.35263446  0.97623836     0.12300
H842        H  0.92499959  0.29159799  0.02316297     0.14200
C843        C  0.92313775  0.05467688  0.28175517    -0.01300
C844        C  0.90816159  0.04621876  0.30000809    -0.09400
C845        C  0.88332606  0.04579343  0.29687066    -0.18200
C846        C  0.87275003  0.05416680  0.27536245     0.04200
C847        C  0.88807898  0.06396785  0.25753535     0.18400
C848        C  0.91289073  0.06390544  0.26077399    -0.19600
C849        C  0.87863597  0.07358463  0.23640630    -0.20900
C850        C  0.85417958  0.07344543  0.23239544    -0.19400
C851        C  0.83864082  0.06310256  0.24911918     0.19800
C852        C  0.84763079  0.05311902  0.27076407     0.01900
C853        C  0.83114337  0.04200471  0.28647022    -0.14200
C854        C  0.80685464  0.04065420  0.28074317    -0.11900
C855        C  0.79803765  0.05073605  0.25944345     0.01400
C856        C  0.81414447  0.06234554  0.24400996    -0.24000
H857        H  0.91569934  0.03932729  0.31651030     0.09500
H858        H  0.87288407  0.03884642  0.31156405     0.13000
H859        H  0.92433328  0.07107753  0.24678336     0.11700
H860        H  0.89025995  0.08125109  0.22285670     0.12900
H861        H  0.84741838  0.08102257  0.21583277     0.12000
H862        H  0.83657446  0.03358025  0.30298318     0.09000
H863        H  0.79507264  0.03118019  0.29288289     0.12300
H864        H  0.80767750  0.07081981  0.22777449     0.14200
C865        C  0.74638894  0.23606057  0.98927050    -0.01300
C866        C  0.75877603  0.22277184  0.00658194    -0.09400
C867        C  0.75627108  0.19799391  0.00804313    -0.18200
C868        C  0.74116085  0.18555702  0.99210654     0.04200
C869        C  0.72804214  0.19916929  0.97502800     0.18400
C870        C  0.73087433  0.22414392  0.97365370    -0.19600
C871        C  0.71215102  0.18778059  0.95945915    -0.20900
C872        C  0.70882061  0.16311673  0.96062789    -0.19400
C873        C  0.72175394  0.14917140  0.97697051     0.19800
C874        C  0.73848054  0.16014957  0.99263325     0.01900
C875        C  0.75212566  0.14516466  0.00784003    -0.14200
C876        C  0.74910080  0.12042237  0.00763236    -0.11900
C877        C  0.73213626  0.10983343  0.99271841     0.01400
C878        C  0.71835235  0.12422825  0.97752969    -0.24000
H879        H  0.77032935  0.23164675  0.01931157     0.09500
H880        H  0.76615480  0.18918734  0.02207184     0.13000
H881        H  0.72117582  0.23430546  0.96023202     0.11700
H882        H  0.70206368  0.19804896  0.94642901     0.12900
H883        H  0.69623007  0.15485737  0.94847430     0.12000
H884        H  0.76562851  0.15190120  0.01974567     0.09000
H885        H  0.75999112  0.10945459  0.01940143     0.12300
H886        H  0.70551899  0.11591904  0.96564833     0.14200
C887        C  0.72410810  0.04229661  0.06896390    -0.01300
C888        C  0.70614793  0.03167825  0.08292153    -0.09400
C889        C  0.70707049  0.03263214  0.10802644    -0.18200
C890        C  0.72576754  0.04485493  0.11987864     0.04200
C891        C  0.74298765  0.05686885  0.10542672     0.24400
C892        C  0.74231664  0.05501239  0.08038396    -0.19600
C893        C  0.76084872  0.07071811  0.11600303    -0.20900
C894        C  0.76220525  0.07273913  0.14072533    -0.19400
C895        C  0.74637118  0.06013460  0.15551674     0.19800
C896        C  0.72808165  0.04573640  0.14543487     0.01900
C897        C  0.71348746  0.03240377  0.16139586    -0.14200
C898        C  0.71721810  0.03313192  0.18625424    -0.11900
C899        C  0.73535582  0.04736088  0.19599496     0.01400
C900        C  0.74931941  0.06132973  0.18039997    -0.24000
H901        H  0.69171990  0.02201244  0.07440776     0.09500
H902        H  0.69283917  0.02387414  0.11771470     0.13000
H903        H  0.75594681  0.06376362  0.06964660     0.11700
H904        H  0.77381357  0.08016678  0.10506092     0.12900
H905        H  0.77620936  0.08369793  0.14834770     0.12000
H906        H  0.69963239  0.02060558  0.15509201     0.09000
H907        H  0.70635697  0.02194670  0.19782151     0.12300
H908        H  0.76312701  0.07279709  0.18766726     0.14200
C909        C  0.72972956  0.03243577  0.92106673    -0.01300
C910        C  0.71116217  0.04157443  0.90683306    -0.09400
C911        C  0.71255226  0.04089721  0.88174353    -0.18200
C912        C  0.73253408  0.03062780  0.86996380     0.04200
C913        C  0.75094130  0.02070942  0.88455458     0.18400
C914        C  0.74954811  0.02200968  0.90969787    -0.19600
C915        C  0.77072447  0.00952579  0.87399577    -0.20900
C916        C  0.77287507  0.00822459  0.84924578    -0.19400
C917        C  0.75560418  0.01860007  0.83434870     0.19800
C918        C  0.73513389  0.02996275  0.84434915     0.01900
C919        C  0.71864376  0.04062278  0.82822364    -0.14200
C920        C  0.72304422  0.04104239  0.80340082    -0.11900
C921        C  0.74377480  0.03054736  0.79379197     0.01400
C922        C  0.75929923  0.01841233  0.80946490    -0.24000
H923        H  0.69559763  0.04967506  0.91514162     0.09500
H924        H  0.69768715  0.04844105  0.87203275     0.13000
H925        H  0.76388634  0.01459458  0.92048920     0.11700
H926        H  0.78471118  0.00175307  0.88498078     0.12900
H927        H  0.78852860  0.99955219  0.84168794     0.12000
H928        H  0.70265759  0.04956344  0.83435219     0.09000
H929        H  0.71069060  0.05052327  0.79185085     0.12300
H930        H  0.77501199  0.00949468  0.80231744     0.14200
C931        C  0.73371066  0.83666423  0.99950499    -0.01300
C932        C  0.71360105  0.84735520  0.98895672    -0.09400
C933        C  0.70986254  0.87206906  0.99036422    -0.18200
C934        C  0.72640368  0.88702748  0.00219656     0.04200
C935        C  0.74659870  0.87602621  0.01312960     0.18400
C936        C  0.74985430  0.85113478  0.01197681    -0.19600
C937        C  0.76384263  0.88997135  0.02459143    -0.20900
C938        C  0.76212565  0.91478228  0.02439790    -0.19400
C939        C  0.74281347  0.92619113  0.01325752     0.19800
C940        C  0.72418058  0.91253261  0.00278220     0.01900
C941        C  0.70443718  0.92507804  0.99296791    -0.14200
C942        C  0.70399876  0.95012363  0.99232534    -0.11900
C943        C  0.72320870  0.96334910  0.00123281     0.01400
C944        C  0.74229226  0.95126154  0.01214288    -0.24000
H945        H  0.70094522  0.83664522  0.97900362     0.09500
H946        H  0.69427410  0.87897847  0.98139893     0.13000
H947        H  0.76522105  0.84301333  0.02061964     0.11700
H948        H  0.77916553  0.88166757  0.03311532     0.12900
H949        H  0.77617254  0.92513253  0.03275895     0.12000
H950        H  0.68917632  0.91607297  0.98553750     0.09000
H951        H  0.68887811  0.95914805  0.98416885     0.12300
H952        H  0.75696200  0.96142850  0.01964996     0.14200
C953        C  0.35226946  0.01968550  0.60789394    -0.01300
C954        C  0.33228563  0.03479336  0.60920823    -0.09400
C955        C  0.32135368  0.03980741  0.63115870    -0.18200
C956        C  0.32982657  0.02945818  0.65270255     0.04200
C957        C  0.34996314  0.01392523  0.65132057     0.18400
C958        C  0.36121288  0.00954370  0.62912510    -0.19600
C959        C  0.35830465  0.00235168  0.67199779    -0.20900
C960        C  0.34633611  0.00492023  0.69378323    -0.19400
C961        C  0.32612493  0.01967868  0.69561656     0.19800
C962        C  0.31831232  0.03303589  0.67533458     0.01900
C963        C  0.29890430  0.04895833  0.67846212    -0.14200
C964        C  0.28619979  0.04960273  0.69996325    -0.11900
C965        C  0.29224717  0.03444906  0.71912961     0.01400
C966        C  0.31303649  0.02041505  0.71727024    -0.24000
H967        H  0.32510980  0.04301665  0.59316729     0.09500
H968        H  0.30588587  0.05133480  0.63055240     0.13000
H969        H  0.37650743  0.99759864  0.62829301     0.11700
H970        H  0.37371993  0.99056943  0.67114551     0.12900
H971        H  0.35270495  0.99498011  0.70921370     0.12000
H972        H  0.29284842  0.06086496  0.66450184     0.09000
H973        H  0.27085074  0.06142566  0.70128352     0.12300
H974        H  0.31818796  0.00894631  0.73209357     0.14200
C975        C  0.34347476  0.01570947  0.40934818    -0.01300
C976        C  0.31899753  0.01050624  0.40950408    -0.09400
C977        C  0.30563962  0.01113656  0.38842447    -0.18200
C978        C  0.31628602  0.01730796  0.36624389     0.04200
C979        C  0.34092845  0.02338456  0.36616539     0.18400
C980        C  0.35434500  0.02214430  0.38750992    -0.19600
C981        C  0.35187667  0.03101672  0.34485267    -0.20900
C982        C  0.33868966  0.03338328  0.32379087    -0.19400
C983        C  0.31439448  0.02738325  0.32325735     0.19800
C984        C  0.30313758  0.01839448  0.34431690     0.01900
C985        C  0.27916823  0.01083475  0.34253799    -0.14200
C986        C  0.26638287  0.01385993  0.32136542    -0.11900
C987        C  0.27672303  0.02482207  0.30117091     0.01400
C988        C  0.30111313  0.03072827  0.30198217    -0.24000
H989        H  0.31004151  0.00554319  0.42598362     0.09500
H990        H  0.28689424  0.00717972  0.39019687     0.13000
H991        H  0.37316302  0.02667895  0.38716106     0.11700
H992        H  0.37065553  0.03573396  0.34459615     0.12900
H993        H  0.34756634  0.03996615  0.30780133     0.12000
H994        H  0.26979576  0.00241614  0.35717020     0.09000
H995        H  0.24796479  0.00791973  0.32099200     0.12300
H996        H  0.30952890  0.03876851  0.28642052     0.14200
C997        C  0.66031643  0.02371705  0.59508594    -0.01300
C998        C  0.65367063  0.00979525  0.61497140    -0.09400
C999        C  0.66531249  0.01216185  0.63697245    -0.18200
C1000       C  0.68411541  0.02874419  0.63997253     0.04200
C1001       C  0.69047390  0.04322244  0.61991157     0.18400
C1002       C  0.67875845  0.04045768  0.59777599    -0.19600
C1003       C  0.70856336  0.06034400  0.62202729    -0.20900
C1004       C  0.72083786  0.06310326  0.64346781    -0.19400
C1005       C  0.71552722  0.04864076  0.66331377     0.19800
C1006       C  0.69701817  0.03132777  0.66198195     0.01900
C1007       C  0.69265511  0.01707397  0.68258761    -0.14200
C1008       C  0.70666206  0.01934349  0.70323932    -0.11900
C1009       C  0.72532650  0.03599628  0.70422259     0.01400
C1010       C  0.72910748  0.05103945  0.68431292    -0.24000
H1011       H  0.63953724  0.99667901  0.61350899     0.09500
H1012       H  0.65916793  0.00072981  0.65129186     0.13000
H1013       H  0.68383928  0.05162739  0.58269038     0.11700
H1014       H  0.71338681  0.07159389  0.60691565     0.12900
H1015       H  0.73490420  0.07637688  0.64439549     0.12000
H1016       H  0.67895843  0.00355140  0.68310033     0.09000
H1017       H  0.70339017  0.00736976  0.71817807     0.12300
H1018       H  0.74309472  0.06442200  0.68494317     0.14200
C1019       C  0.65091583  0.03035982  0.39490063    -0.01300
C1020       C  0.64560580  0.01510082  0.37572944    -0.09400
C1021       C  0.65608468  0.01850986  0.35315508    -0.18200
C1022       C  0.67210503  0.03764139  0.34887998     0.04200
C1023       C  0.67685236  0.05348075  0.36824233     0.18400
C1024       C  0.66649695  0.04958142  0.39093208    -0.19600
C1025       C  0.69213721  0.07301705  0.36495698    -0.20900
C1026       C  0.70357790  0.07671990  0.34313984    -0.19400
C1027       C  0.70016372  0.06088756  0.32406467     0.19800
C1028       C  0.68402992  0.04137130  0.32638505     0.01900
C1029       C  0.68121861  0.02610906  0.30632029    -0.14200
C1030       C  0.69504450  0.02920897  0.28554719    -0.11900
C1031       C  0.71193002  0.04762626  0.28404511     0.01400
C1032       C  0.71365547  0.06393043  0.30302776    -0.24000
H1033       H  0.63361544  0.00010260  0.37831232     0.09500
H1034       H  0.65139408  0.00580791  0.33945126     0.13000
H1035       H  0.67042581  0.06172006  0.40553306     0.11700
H1036       H  0.69560023  0.08533145  0.37951996     0.12900
H1037       H  0.71568688  0.09174085  0.34138027     0.12000
H1038       H  0.66908501  0.01114326  0.30644476     0.09000
H1039       H  0.69340728  0.01639855  0.27109033     0.12300
H1040       H  0.72644180  0.07846019  0.30182187     0.14200
C1041       C  0.59988137  0.38117885  0.98478524    -0.01300
C1042       C  0.61984438  0.39165715  0.99562874    -0.09400
C1043       C  0.64205692  0.38012615  0.99551983    -0.18200
C1044       C  0.64517670  0.35772318  0.98414683     0.04200
C1045       C  0.62508241  0.34758506  0.97238418     0.18400
C1046       C  0.60266919  0.35909064  0.97318607    -0.19600
C1047       C  0.62751936  0.32612454  0.95967961    -0.20900
C1048       C  0.64952467  0.31453760  0.95832588    -0.19400
C1049       C  0.66945145  0.32363348  0.97036517     0.19800
C1050       C  0.66750863  0.34512547  0.98381203     0.01900
C1051       C  0.68785601  0.35274141  0.99671984    -0.14200
C1052       C  0.70910502  0.33944170  0.99644460    -0.11900
C1053       C  0.71103694  0.31831792  0.98302532     0.01400
C1054       C  0.69117161  0.31095799  0.96952923    -0.24000
H1055       H  0.61825750  0.40874196  0.00464480     0.09500
H1056       H  0.65652191  0.38937132  0.00418484     0.13000
H1057       H  0.58748201  0.35105168  0.96431861     0.11700
H1058       H  0.61235723  0.31837006  0.95052326     0.12900
H1059       H  0.65083915  0.29804252  0.94817264     0.12000
H1060       H  0.68764935  0.36843848  0.00790813     0.09000
H1061       H  0.72379430  0.34535560  0.00751415     0.12300
H1062       H  0.69237388  0.29489830  0.95869300     0.14200
C1063       C  0.39987576  0.37784861  0.98828094    -0.01300
C1064       C  0.37934509  0.38941158  0.99710434    -0.09400
C1065       C  0.35731784  0.37767060  0.99817557    -0.18200
C1066       C  0.35489427  0.35379380  0.99023705     0.04200
C1067       C  0.37551946  0.34237406  0.98047090     0.18400
C1068       C  0.39770712  0.35428372  0.97986426    -0.19600
C1069       C  0.37387724  0.31911905  0.97132525    -0.20900
C1070       C  0.35227185  0.30687372  0.97182566    -0.19400
C1071       C  0.33187526  0.31729213  0.98208548     0.19800
C1072       C  0.33283686  0.34081819  0.99162736     0.01900
C1073       C  0.31181393  0.35002968  0.00253841    -0.14200
C1074       C  0.29096627  0.33621170  0.00432438    -0.11900
C1075       C  0.29019402  0.31290964  0.99504559     0.01400
C1076       C  0.31064927  0.30398298  0.98330198    -0.24000
H1077       H  0.38025918  0.40759314  0.00368942     0.09500
H1078       H  0.34246949  0.38782080  0.00521237     0.13000
H1079       H  0.41324843  0.34521221  0.97256899     0.11700
H1080       H  0.38941818  0.31033577  0.96366652     0.12900
H1081       H  0.35164019  0.28889085  0.96456809     0.12000
H1082       H  0.31113856  0.36758592  0.01050467     0.09000
H1083       H  0.27562206  0.34358604  0.01363667     0.12300
H1084       H  0.31026069  0.28633046  0.97528348     0.14200
C1085       C  0.70211481  0.75320926  0.00138272    -0.01300
C1086       C  0.68408620  0.75939927  0.01781884    -0.09400
C1087       C  0.66216425  0.74766186  0.01794716    -0.18200
C1088       C  0.65759587  0.72878546  0.00188819     0.04200
C1089       C  0.67675324  0.72062942  0.98717743     0.18400
C1090       C  0.69866884  0.73309442  0.98672936    -0.19600
C1091       C  0.67366355  0.70039001  0.97274182    -0.20900
C1092       C  0.65190605  0.68827332  0.97250106    -0.19400
C1093       C  0.63233596  0.69681886  0.98572635     0.19800
C1094       C  0.63474348  0.71761785  0.00009586     0.01900
C1095       C  0.61399222  0.72684377  0.01140092    -0.14200
C1096       C  0.59196558  0.71532172  0.00924317    -0.11900
C1097       C  0.58998737  0.69403581  0.99623202     0.01400
C1098       C  0.61024813  0.68491208  0.98444170    -0.24000
H1099       H  0.68667615  0.77398811  0.03030188     0.09500
H1100       H  0.64916645  0.75363891  0.03093525     0.13000
H1101       H  0.71259109  0.72773322  0.97428419     0.11700
H1102       H  0.68821342  0.69378821  0.96169722     0.12900
H1103       H  0.65018073  0.67248628  0.96137903     0.12000
H1104       H  0.61413308  0.74323979  0.02156544     0.09000
H1105       H  0.57652375  0.72280175  0.01831995     0.12300
H1106       H  0.60870263  0.66872228  0.97386821     0.14200
C1107       C  0.39056566  0.68617184  0.00348450    -0.01300
C1108       C  0.37098403  0.67544973  0.01501180    -0.09400
C1109       C  0.34828799  0.68612416  0.01444084    -0.18200
C1110       C  0.34433989  0.70787049  0.00197096     0.04200
C1111       C  0.36412596  0.71817286  0.98962453     0.18400
C1112       C  0.38690062  0.70752847  0.99078432    -0.19600
C1113       C  0.36113239  0.73909942  0.97612756    -0.20900
C1114       C  0.33900077  0.75032893  0.97491695    -0.19400
C1115       C  0.31943994  0.74131482  0.98771276     0.19800
C1116       C  0.32167545  0.71996291  0.00144971     0.01900
C1117       C  0.30135085  0.71225406  0.01460125    -0.14200
C1118       C  0.28024950  0.72596384  0.01510623    -0.11900
C1119       C  0.27858350  0.74748548  0.00219077     0.01400
C1120       C  0.29794215  0.75427269  0.98764221    -0.24000
H1121       H  0.37325233  0.65886817  0.02486709     0.09500
H1122       H  0.33415365  0.67689019  0.02380564     0.13000
H1123       H  0.40174940  0.71573395  0.98136612     0.11700
H1124       H  0.37605389  0.74690579  0.96648945     0.12900
H1125       H  0.33735883  0.76663391  0.96443814     0.12000
H1126       H  0.30158484  0.69626657  0.02549217     0.09000
H1127       H  0.26563801  0.72027121  0.02652598     0.12300
H1128       H  0.29668864  0.77054073  0.97702937     0.14200
loop_ 
_geom_bond_atom_site_label_1 
_geom_bond_atom_site_label_2 
_geom_bond_distance 
_geom_bond_site_symmetry_2 
_ccdc_geom_bond_type 
N1            N2   1.322       .  A
N1            C5   1.348       .  A
N1           Cu9   2.096   1_554  S
N2            C3   1.345       .  A
N2           Cu8   2.069       .  S
C3            C4   1.384       .  A
C3            H6   1.082       .  S
C4            C5   1.391       .  A
C4         C1107   1.487       .  S
C5            H7   1.082   1_554  S
Cu8          N11   2.069       .  S
Cu9          N19   2.095       .  S
Cu10         N12   2.067   1_556  S
Cu10         N18   2.067       .  S
N11          N12   1.321       .  A
N11          C15   1.345       .  A
N12          C13   1.344   1_554  A
C13          C14   1.382   1_556  A
C13          H16   1.082       .  S
C14          C15   1.383       .  A
C14          C38   1.469   1_554  S
C15          H17   1.082       .  S
N18          N19   1.323       .  A
N18          C22   1.344       .  A
N19          C20   1.349       .  A
C20          C21   1.389       .  A
C20          H23   1.082       .  S
C21          C22   1.382       .  A
C21        C1097   1.481       .  S
C22          H24   1.082       .  S
N25          N26   1.321       .  A
N25          C29   1.351       .  A
N25         Cu33   2.098       .  S
N26          C27   1.343       .  A
N26         Cu32   2.071       .  S
C27          C28   1.386       .  A
C27          H30   1.081       .  S
C28          C29   1.393       .  A
C28        C1063   1.492       .  S
C29          H31   1.082       .  S
Cu32         N35   2.071       .  S
Cu33         N43   2.098       .  S
Cu34         N36   2.068       .  S
Cu34         N42   2.069       .  S
N35          N36   1.321       .  A
N35          C39   1.345       .  A
N36          C37   1.344       .  A
C37          C38   1.383       .  A
C37          H40   1.082       .  S
C38          C39   1.383       .  A
C39          H41   1.082       .  S
N42          N43   1.323       .  A
N42          C46   1.344       .  A
N43          C44   1.348       .  A
C44          C45   1.389       .  A
C44          H47   1.082       .  S
C45          C46   1.384       .  A
C45        C1041   1.485       .  S
C46          H48   1.081       .  S
N49          N50   1.324       .  A
N49          C53   1.350       .  A
N49         Cu57   2.102       .  S
N50          C51   1.346       .  A
N50         Cu56   2.080       .  S
C51          C52   1.385       .  A
C51          H54   1.082       .  S
C52          C53   1.390       .  A
C52        C1019   1.488       .  S
C53          H55   1.082       .  S
Cu56         N59   2.080       .  S
Cu57         N67   2.102       .  S
Cu58         N60   2.076   1_545  S
Cu58         N66   2.076       .  S
N59          N60   1.321   1_545  A
N59          C63   1.346   1_545  A
N60          C61   1.347       .  A
C61          C62   1.385       .  A
C61          H64   1.082       .  S
C62          C63   1.385       .  A
C62          C86   1.477       .  S
C63          H65   1.082   1_565  S
N66          N67   1.323       .  A
N66          C70   1.344       .  A
N67          C68   1.351       .  A
C68          C69   1.392       .  A
C68          H71   1.082       .  S
C69          C70   1.385       .  A
C69         C997   1.490       .  S
C70          H72   1.081       .  S
N73          N74   1.322       .  A
N73          C77   1.347       .  A
N73         Cu81   2.089       .  S
N74          C75   1.347       .  A
N74         Cu80   2.080       .  S
C75          C76   1.387       .  A
C75          H78   1.082       .  S
C76          C77   1.390       .  A
C76         C975   1.489       .  S
C77          H79   1.081       .  S
Cu80         N83   2.081       .  S
Cu81         N91   2.089       .  S
Cu82         N84   2.081       .  S
Cu82         N90   2.081       .  S
N83          N84   1.322       .  A
N83          C87   1.346   1_545  A
N84          C85   1.347   1_545  A
C85          C86   1.385       .  A
C85          H88   1.082       .  S
C86          C87   1.385       .  A
C87          H89   1.082   1_565  S
N90          N91   1.323       .  A
N90          C94   1.347       .  A
N91          C92   1.347       .  A
C92          C93   1.389       .  A
C92          H95   1.082       .  S
C93          C94   1.385       .  A
C93         C953   1.486       .  S
C94          H96   1.082       .  S
O97        Cu105   2.022       .  S
O97         C107   1.279       .  A
O98        Cu105   2.029   1_554  S
O98         C108   1.280       .  A
O99        Cu105   2.020       .  S
O99         C109   1.279       .  A
O100       Cu105   2.019       .  S
O100        C110   1.279   1_545  A
O101       Cu106   1.989       .  S
O101        C110   1.276   1_545  A
O102       Cu106   1.986       .  S
O102        C109   1.275       .  A
O103       Cu106   2.006   1_554  S
O103        C108   1.278       .  A
O104       Cu106   2.023       .  S
O104        C107   1.280       .  A
Cu105      Cu106   2.373       .  S
C107        C909   1.488       .  S
C108        C887   1.480       .  S
C109        C877   1.468       .  S
C110        C943   1.475   1_556  S
C111        C112   1.407       .  A
C111        C116   1.411       .  A
C111       C1031   1.487       .  S
C112        C113   1.402       .  A
C112        H117   1.083       .  S
C113        C114   1.403       .  A
C113        C855   1.493       .  S
C114        C115   1.405       .  A
C114        H118   1.083       .  S
C115        C116   1.411       .  A
C115        C899   1.493       .  S
C116        H119   1.083       .  S
C120        C121   1.408       .  A
C120        C125   1.417       .  A
C120       C1053   1.495       .  S
C121        C122   1.398       .  A
C121        H126   1.083       .  S
C122        C123   1.398       .  A
C122        C865   1.483       .  S
C123        C124   1.405       .  A
C123        H127   1.083       .  S
C124        C125   1.411       .  A
C124        C821   1.493       .  S
C125        H128   1.082       .  S
O129       Cu137   2.000   1_655  S
O129        C139   1.277       .  A
O130       Cu137   1.988       .  S
O130        C140   1.276       .  A
O131       Cu137   2.005       .  S
O131        C141   1.278       .  A
O132       Cu137   2.008       .  S
O132        C142   1.279   1_545  A
O133       Cu138   2.019       .  S
O133        C142   1.278   1_545  A
O134       Cu138   2.026       .  S
O134        C141   1.279       .  A
O135       Cu138   2.035       .  S
O135        C140   1.281       .  A
O136       Cu138   2.021   1_655  S
O136        C139   1.279       .  A
Cu137      Cu138   2.371       .  S
C139        C799   1.474       .  S
C140        C733   1.480       .  S
C141        C767   1.480       .  S
C142        C789   1.478       .  S
C143        C144   1.408       .  A
C143        C148   1.412       .  A
C143        C689   1.488       .  S
C144        C145   1.399       .  A
C144        H149   1.083       .  S
C145        C146   1.400       .  A
C145        C711   1.490       .  S
C146        C147   1.406       .  A
C146        H150   1.083       .  S
C147        C148   1.412       .  A
C147        C755   1.489       .  S
C148        H151   1.084       .  S
C152        C153   1.409       .  A
C152        C157   1.415       .  A
C152        C965   1.492       .  S
C153        C154   1.400       .  A
C153        H158   1.082       .  S
C154        C155   1.401       .  A
C154        C745   1.494       .  S
C155        C156   1.406       .  A
C155        H159   1.082       .  S
C156        C157   1.413       .  A
C156        C667   1.497       .  S
C157        H160   1.083       .  S
O161       Cu169   2.016       .  S
O161        C171   1.280       .  A
O162       Cu169   2.016   1_556  S
O162        C172   1.279       .  A
O163       Cu169   1.973   1_565  S
O163        C173   1.274       .  A
O164       Cu169   1.981       .  S
O164        C174   1.275       .  A
O165       Cu170   2.022       .  S
O165        C174   1.279       .  A
O166       Cu170   2.040   1_565  S
O166        C173   1.281       .  A
O167       Cu170   2.036   1_556  S
O167        C172   1.281       .  A
O168       Cu170   2.037       .  S
O168        C171   1.281       .  A
Cu169      Cu170   2.370       .  S
C171        C623   1.489       .  S
C172        C679   1.488       .  S
C173        C645   1.474       .  S
C174        C613   1.472       .  S
O175       Cu183   1.988   1_455  S
O175        C185   1.275       .  A
O176       Cu183   1.984       .  S
O176        C186   1.275       .  A
O177       Cu183   1.999       .  S
O177        C187   1.278       .  A
O178       Cu183   2.013       .  S
O178        C188   1.280       .  A
O179       Cu184   2.028       .  S
O179        C188   1.279       .  A
O180       Cu184   2.028       .  S
O180        C187   1.279       .  A
O181       Cu184   2.033       .  S
O181        C186   1.281       .  A
O182       Cu184   2.033   1_455  S
O182        C185   1.281       .  A
Cu183      Cu184   2.370       .  S
C185        C547   1.478       .  S
C186        C843   1.478       .  S
C187        C557   1.477       .  S
C188        C579   1.486   1_545  S
O189       Cu197   2.028   1_554  S
O189        C199   1.281       .  A
O190       Cu197   2.024       .  S
O190        C200   1.280   1_455  A
O191       Cu197   2.024   1_655  S
O191        C201   1.279       .  A
O192       Cu197   2.020       .  S
O192        C202   1.279       .  A
O193       Cu198   2.010   1_455  S
O193        C202   1.279       .  A
O194       Cu198   2.009       .  S
O194        C201   1.279       .  A
O195       Cu198   1.993       .  S
O195        C200   1.276       .  A
O196       Cu198   1.996   1_454  S
O196        C199   1.276       .  A
Cu197      Cu198   2.368   1_455  S
C199        C525   1.479       .  S
C200        C723   1.477       .  S
C201        C833   1.481       .  S
C202        C503   1.481       .  S
C203        C204   1.408       .  A
C203        C208   1.406   1_655  A
C203        C469   1.487       .  S
C204        C205   1.408       .  A
C204        H209   1.083       .  S
C205        C206   1.409       .  A
C205        C569   1.489       .  S
C206        C207   1.404   1_655  A
C206        H210   1.082       .  S
C207        C208   1.403       .  A
C207        C513   1.495       .  S
C208        H211   1.083       .  S
C212        C213   1.417       .  A
C212        C217   1.409       .  A
C212        C987   1.496       .  S
C213        C214   1.414       .  A
C213        H218   1.083       .  S
C214        C215   1.406       .  A
C214        C635   1.493       .  S
C215        C216   1.400       .  A
C215        H219   1.084       .  S
C216        C217   1.398       .  A
C216        C535   1.489       .  S
C217        H220   1.083       .  S
C221        C222   1.418       .  A
C221        C226   1.409   1_556  A
C221       C1075   1.497       .  S
C222        C223   1.413       .  A
C222        H227   1.082       .  S
C223        C224   1.402   1_556  A
C223        C491   1.493       .  S
C224        C225   1.398       .  A
C224        H228   1.084       .  S
C225        C226   1.398       .  A
C225        C601   1.484       .  S
C226        H229   1.082       .  S
O230       Cu238   1.979       .  S
O230        C240   1.274       .  A
O231       Cu238   1.973   1_554  S
O231        C241   1.274       .  A
O232       Cu238   2.009   1_454  S
O232        C242   1.278       .  A
O233       Cu238   2.020       .  S
O233        C243   1.280       .  A
O234       Cu239   2.017   1_556  S
O234        C243   1.278       .  A
O235       Cu239   2.020   1_455  S
O235        C242   1.278       .  A
O236       Cu239   2.039       .  S
O236        C241   1.281       .  A
O237       Cu239   2.040   1_556  S
O237        C240   1.282       .  A
Cu238      Cu239   2.369   1_556  S
C240        C447   1.474   1_655  S
C241        C403   1.476       .  S
C242        C381   1.476       .  S
C243        C425   1.483       .  S
C244        C245   1.405       .  A
C244        C249   1.416       .  A
C244        C359   1.497       .  S
C245        C246   1.399       .  A
C245        H250   1.082       .  S
C246        C247   1.403       .  A
C246        C415   1.493       .  S
C247        C248   1.409       .  A
C247        H251   1.082       .  S
C248        C249   1.416       .  A
C248        C591   1.502       .  S
C249        H252   1.082       .  S
C253        C254   1.416       .  A
C253        C258   1.409       .  A
C253       C1119   1.494       .  S
C254        C255   1.414       .  A
C254        H259   1.083       .  S
C255        C256   1.406       .  A
C255        C393   1.494       .  S
C256        C257   1.401       .  A
C256        H260   1.083       .  S
C257        C258   1.398       .  A
C257        C657   1.491       .  S
C258        H261   1.083       .  S
C262        C263   1.408       .  A
C262        C267   1.413   1_655  A
C262        C337   1.490       .  S
C263        C264   1.400   1_655  A
C263        H268   1.084       .  S
C264        C265   1.399       .  A
C264        C459   1.489       .  S
C265        C266   1.407       .  A
C265        H269   1.083       .  S
C266        C267   1.414       .  A
C266        C777   1.494       .  S
C267        H270   1.083       .  S
C271        C272   1.418       .  A
C271        C276   1.408       .  A
C271       C1009   1.496       .  S
C272        C273   1.416       .  A
C272        H277   1.082       .  S
C273        C274   1.407       .  A
C273        C921   1.500       .  S
C274        C275   1.398       .  A
C274        H278   1.083       .  S
C275        C276   1.396       .  A
C275        C811   1.480       .  S
C276        H279   1.083       .  S
C280        C281   1.415       .  A
C280        C285   1.407       .  A
C280       C1085   1.492   1_556  S
C281        C282   1.413       .  A
C281        H286   1.083       .  S
C282        C283   1.407       .  A
C282        C437   1.491       .  S
C283        C284   1.400       .  A
C283        H287   1.083       .  S
C284        C285   1.397       .  A
C284        C931   1.486       .  S
C285        H288   1.083   1_556  S
N289        N290   1.324       .  A
N289        C293   1.347       .  A
N289       Cu297   2.099       .  S
N290        C291   1.346       .  A
N290       Cu296   2.071       .  S
C291        C292   1.383       .  A
C291        H294   1.082       .  S
C292        C293   1.389       .  A
C292        C701   1.483       .  S
C293        H295   1.082       .  S
Cu296       N299   2.071       .  S
Cu297       N307   2.099       .  S
Cu298       N300   2.069       .  S
Cu298       N306   2.069       .  S
N299        N300   1.321       .  A
N299        C303   1.345       .  A
N300        C301   1.344       .  A
C301        C302   1.382       .  A
C301        H304   1.082       .  S
C302        C303   1.384       .  A
C302        C326   1.471       .  S
C303        H305   1.082       .  S
N306        N307   1.322       .  A
N306        C310   1.344       .  A
N307        C308   1.350       .  A
C308        C309   1.392       .  A
C308        H311   1.082   1_455  S
C309        C310   1.383       .  A
C309        C349   1.486       .  S
C310        H312   1.082       .  S
N313        N314   1.321       .  A
N313        C317   1.347       .  A
N313       Cu321   2.092       .  S
N314        C315   1.344       .  A
N314       Cu320   2.061       .  S
C315        C316   1.384       .  A
C315        H318   1.082       .  S
C316        C317   1.392       .  A
C316        C481   1.487       .  S
C317        H319   1.081   1_455  S
Cu320       N323   2.061       .  S
Cu321       N331   2.093       .  S
Cu322       N324   2.078       .  S
Cu322       N330   2.079       .  S
N323        N324   1.321       .  A
N323        C327   1.343       .  A
N324        C325   1.346       .  A
C325        C326   1.385       .  A
C325        H328   1.082       .  S
C326        C327   1.381       .  A
C327        H329   1.082       .  S
N330        N331   1.323       .  A
N330        C334   1.346       .  A
N331        C332   1.348       .  A
C332        C333   1.389       .  A
C332        H335   1.082   1_455  S
C333        C334   1.386       .  A
C333        C371   1.488       .  S
C334        H336   1.081       .  S
C337        C338   1.402       .  A
C337        C342   1.404   1_655  A
C338        C339   1.395       .  A
C338        H351   1.084       .  S
C339        C340   1.412       .  A
C339        H352   1.078       .  S
C340        C346   1.432       .  A
C340        C341   1.423   1_655  A
C341        C343   1.401       .  A
C341        C342   1.413       .  A
C342        H353   1.084       .  S
C343        C344   1.394       .  A
C343        H354   1.084       .  S
C344        C345   1.402       .  A
C344        H355   1.084       .  S
C345        C346   1.421   1_455  A
C345        C350   1.409       .  A
C346        C347   1.416       .  A
C347        C348   1.399       .  A
C347        H356   1.077       .  S
C348        C349   1.399   1_655  A
C348        H357   1.083       .  S
C349        C350   1.405       .  A
C350        H358   1.084       .  S
C359        C360   1.401   1_655  A
C359        C364   1.407       .  A
C360        C361   1.404       .  A
C360        H373   1.083       .  S
C361        C362   1.419   1_455  A
C361        H374   1.077       .  S
C362        C368   1.435       .  A
C362        C363   1.420       .  A
C363        C365   1.400       .  A
C363        C364   1.404       .  A
C364        H375   1.085       .  S
C365        C366   1.390       .  A
C365        H376   1.084       .  S
C366        C367   1.399       .  A
C366        H377   1.084       .  S
C367        C368   1.424       .  A
C367        C372   1.408       .  A
C368        C369   1.414   1_655  A
C369        C370   1.400       .  A
C369        H378   1.077       .  S
C370        C371   1.403       .  A
C370        H379   1.082       .  S
C371        C372   1.402   1_455  A
C372        H380   1.084       .  S
C381        C382   1.398       .  A
C381        C386   1.402   1_554  A
C382        C383   1.396       .  A
C382        H395   1.084       .  S
C383        C384   1.416       .  A
C383        H396   1.078       .  S
C384        C390   1.431       .  A
C384        C385   1.422   1_554  A
C385        C387   1.401       .  A
C385        C386   1.409       .  A
C386        H397   1.085       .  S
C387        C388   1.394       .  A
C387        H398   1.084       .  S
C388        C389   1.401   1_556  A
C388        H399   1.083       .  S
C389        C390   1.423       .  A
C389        C394   1.413   1_554  A
C390        C391   1.411       .  A
C391        C392   1.393       .  A
C391        H400   1.078       .  S
C392        C393   1.404       .  A
C392        H401   1.084       .  S
C393        C394   1.404   1_554  A
C394        H402   1.084       .  S
C403        C404   1.401       .  A
C403        C408   1.401       .  A
C404        C405   1.389       .  A
C404        H417   1.084   1_655  S
C405        C406   1.410       .  A
C405        H418   1.075   1_655  S
C406        C412   1.427       .  A
C406        C407   1.424       .  A
C407        C409   1.400       .  A
C407        C408   1.411       .  A
C408        H419   1.084       .  S
C409        C410   1.393       .  A
C409        H420   1.084       .  S
C410        C411   1.401       .  A
C410        H421   1.083       .  S
C411        C412   1.419       .  A
C411        C416   1.406       .  A
C412        C413   1.415   1_655  A
C413        C414   1.394       .  A
C413        H422   1.075       .  S
C414        C415   1.402   1_455  A
C414        H423   1.083       .  S
C415        C416   1.407       .  A
C416        H424   1.083       .  S
C425        C426   1.399       .  A
C425        C430   1.406   1_556  A
C426        C427   1.396       .  A
C426        H439   1.084       .  S
C427        C428   1.415       .  A
C427        H440   1.077       .  S
C428        C434   1.430       .  A
C428        C429   1.421   1_556  A
C429        C431   1.402       .  A
C429        C430   1.411       .  A
C430        H441   1.084       .  S
C431        C432   1.395       .  A
C431        H442   1.083       .  S
C432        C433   1.401   1_554  A
C432        H443   1.084       .  S
C433        C434   1.423       .  A
C433        C438   1.413   1_556  A
C434        C435   1.411       .  A
C435        C436   1.393       .  A
C435        H444   1.078       .  S
C436        C437   1.402       .  A
C436        H445   1.083       .  S
C437        C438   1.405   1_556  A
C438        H446   1.084       .  S
C447        C448   1.397   1_455  A
C447        C452   1.401       .  A
C448        C449   1.401       .  A
C448        H461   1.083       .  S
C449        C450   1.418   1_655  A
C449        H462   1.078       .  S
C450        C456   1.431       .  A
C450        C451   1.421       .  A
C451        C453   1.399       .  A
C451        C452   1.402       .  A
C452        H463   1.085       .  S
C453        C454   1.389       .  A
C453        H464   1.084       .  S
C454        C455   1.399       .  A
C454        H465   1.084       .  S
C455        C456   1.423       .  A
C455        C460   1.404       .  A
C456        C457   1.415   1_455  A
C457        C458   1.398       .  A
C457        H466   1.078       .  S
C458        C459   1.401   1_655  A
C458        H467   1.083       .  S
C459        C460   1.403       .  A
C460        H468   1.085       .  S
C469        C470   1.401       .  A
C469        C474   1.403   1_655  A
C470        C471   1.392       .  A
C470        H483   1.084       .  S
C471        C472   1.412       .  A
C471        H484   1.078       .  S
C472        C478   1.430       .  A
C472        C473   1.423   1_655  A
C473        C475   1.400       .  A
C473        C474   1.410       .  A
C474        H485   1.084       .  S
C475        C476   1.393       .  A
C475        H486   1.084       .  S
C476        C477   1.402       .  A
C476        H487   1.084       .  S
C477        C478   1.421   1_455  A
C477        C482   1.409       .  A
C478        C479   1.414       .  A
C479        C480   1.394       .  A
C479        H488   1.077       .  S
C480        C481   1.399   1_655  A
C480        H489   1.083       .  S
C481        C482   1.406       .  A
C482        H490   1.084       .  S
C491        C492   1.401   1_556  A
C491        C496   1.405       .  A
C492        C493   1.405       .  A
C492        H505   1.083       .  S
C493        C494   1.419   1_554  A
C493        H506   1.078       .  S
C494        C500   1.434       .  A
C494        C495   1.420       .  A
C495        C497   1.400       .  A
C495        C496   1.401       .  A
C496        H507   1.085       .  S
C497        C498   1.388       .  A
C497        H508   1.084       .  S
C498        C499   1.398       .  A
C498        H509   1.084       .  S
C499        C500   1.424       .  A
C499        C504   1.404       .  A
C500        C501   1.415   1_556  A
C501        C502   1.401       .  A
C501        H510   1.078       .  S
C502        C503   1.401   1_554  A
C502        H511   1.083       .  S
C503        C504   1.400       .  A
C504        H512   1.085       .  S
C513        C514   1.404   1_455  A
C513        C518   1.405       .  A
C514        C515   1.396       .  A
C514        H527   1.082       .  S
C515        C516   1.413   1_655  A
C515        H528   1.077       .  S
C516        C522   1.432       .  A
C516        C517   1.423       .  A
C517        C519   1.399       .  A
C517        C518   1.407       .  A
C518        H529   1.084       .  S
C519        C520   1.390       .  A
C519        H530   1.084       .  S
C520        C521   1.400       .  A
C520        H531   1.084       .  S
C521        C522   1.422       .  A
C521        C526   1.404       .  A
C522        C523   1.417   1_455  A
C523        C524   1.399       .  A
C523        H532   1.077       .  S
C524        C525   1.399   1_655  A
C524        H533   1.083       .  S
C525        C526   1.402       .  A
C526        H534   1.085       .  S
C535        C536   1.401       .  A
C535        C540   1.405       .  A
C536        C537   1.395       .  A
C536        H549   1.083       .  S
C537        C538   1.415       .  A
C537        H550   1.077       .  S
C538        C544   1.429       .  A
C538        C539   1.421       .  A
C539        C541   1.401       .  A
C539        C540   1.406       .  A
C540        H551   1.084       .  S
C541        C542   1.392       .  A
C541        H552   1.084       .  S
C542        C543   1.400       .  A
C542        H553   1.084       .  S
C543        C544   1.424       .  A
C543        C548   1.409       .  A
C544        C545   1.413       .  A
C545        C546   1.393       .  A
C545        H554   1.077       .  S
C546        C547   1.401       .  A
C546        H555   1.084       .  S
C547        C548   1.401       .  A
C548        H556   1.084       .  S
C557        C558   1.401   1_655  A
C557        C562   1.398       .  A
C558        C559   1.404       .  A
C558        H571   1.084       .  S
C559        C560   1.418   1_455  A
C559        H572   1.079       .  S
C560        C566   1.434       .  A
C560        C561   1.423       .  A
C561        C563   1.397       .  A
C561        C562   1.400       .  A
C562        H573   1.085       .  S
C563        C564   1.386       .  A
C563        H574   1.084       .  S
C564        C565   1.398       .  A
C564        H575   1.084       .  S
C565        C566   1.423       .  A
C565        C570   1.401       .  A
C566        C567   1.417   1_655  A
C567        C568   1.403       .  A
C567        H576   1.078       .  S
C568        C569   1.402   1_455  A
C568        H577   1.083       .  S
C569        C570   1.400       .  A
C570        H578   1.085       .  S
C579        C580   1.403       .  A
C579        C584   1.400   1_655  A
C580        C581   1.405       .  A
C580        H593   1.084       .  S
C581        C582   1.418       .  A
C581        H594   1.078       .  S
C582        C588   1.438       .  A
C582        C583   1.424   1_655  A
C583        C585   1.398       .  A
C583        C584   1.404       .  A
C584        H595   1.085       .  S
C585        C586   1.387       .  A
C585        H596   1.085       .  S
C586        C587   1.399       .  A
C586        H597   1.084       .  S
C587        C588   1.421   1_455  A
C587        C592   1.404       .  A
C588        C589   1.418       .  A
C589        C590   1.407       .  A
C589        H598   1.078       .  S
C590        C591   1.404       .  A
C590        H599   1.082       .  S
C591        C592   1.406   1_655  A
C592        H600   1.084       .  S
C601        C602   1.400   1_554  A
C601        C606   1.404       .  A
C602        C603   1.389       .  A
C602        H615   1.083       .  S
C603        C604   1.412   1_556  A
C603        H616   1.073       .  S
C604        C610   1.424       .  A
C604        C605   1.421       .  A
C605        C607   1.401       .  A
C605        C606   1.407       .  A
C606        H617   1.084       .  S
C607        C608   1.393       .  A
C607        H618   1.084       .  S
C608        C609   1.401       .  A
C608        H619   1.084       .  S
C609        C610   1.422       .  A
C609        C614   1.408       .  A
C610        C611   1.412   1_554  A
C611        C612   1.388       .  A
C611        H620   1.073       .  S
C612        C613   1.398   1_556  A
C612        H621   1.083       .  S
C613        C614   1.402       .  A
C614        H622   1.085       .  S
C623        C624   1.400       .  A
C623        C628   1.407       .  A
C624        C625   1.396       .  A
C624        H637   1.084       .  S
C625        C626   1.415       .  A
C625        H638   1.078       .  S
C626        C632   1.434       .  A
C626        C627   1.422       .  A
C627        C629   1.403       .  A
C627        C628   1.415       .  A
C628        H639   1.084       .  S
C629        C630   1.397       .  A
C629        H640   1.084       .  S
C630        C631   1.402       .  A
C630        H641   1.084       .  S
C631        C632   1.424       .  A
C631        C636   1.416       .  A
C632        C633   1.413       .  A
C633        C634   1.394       .  A
C633        H642   1.078       .  S
C634        C635   1.402       .  A
C634        H643   1.084       .  S
C635        C636   1.405       .  A
C636        H644   1.084       .  S
C645        C646   1.398       .  A
C645        C650   1.402       .  A
C646        C647   1.388       .  A
C646        H659   1.084       .  S
C647        C648   1.411       .  A
C647        H660   1.076       .  S
C648        C654   1.427       .  A
C648        C649   1.425       .  A
C649        C651   1.401   1_554  A
C649        C650   1.412       .  A
C650        H661   1.085   1_554  S
C651        C652   1.394       .  A
C651        H662   1.084       .  S
C652        C653   1.402   1_556  A
C652        H663   1.084       .  S
C653        C654   1.420       .  A
C653        C658   1.408   1_554  A
C654        C655   1.414       .  A
C655        C656   1.392       .  A
C655        H664   1.075       .  S
C656        C657   1.401       .  A
C656        H665   1.083       .  S
C657        C658   1.407   1_554  A
C658        H666   1.084       .  S
C667        C668   1.402       .  A
C667        C672   1.405       .  A
C668        C669   1.407       .  A
C668        H681   1.083       .  S
C669        C670   1.419       .  A
C669        H682   1.078       .  S
C670        C676   1.436       .  A
C670        C671   1.421       .  A
C671        C673   1.399   1_545  A
C671        C672   1.401       .  A
C672        H683   1.085   1_545  S
C673        C674   1.388   1_565  A
C673        H684   1.084       .  S
C674        C675   1.398       .  A
C674        H685   1.084   1_545  S
C675        C676   1.424       .  A
C675        C680   1.406       .  A
C676        C677   1.416       .  A
C677        C678   1.405       .  A
C677        H686   1.078       .  S
C678        C679   1.403       .  A
C678        H687   1.084       .  S
C679        C680   1.401       .  A
C680        H688   1.085       .  S
C689        C690   1.402       .  A
C689        C694   1.405       .  A
C690        C691   1.391       .  A
C690        H703   1.084       .  S
C691        C692   1.410       .  A
C691        H704   1.078       .  S
C692        C698   1.428       .  A
C692        C693   1.423       .  A
C693        C695   1.401   1_455  A
C693        C694   1.413       .  A
C694        H705   1.084   1_455  S
C695        C696   1.396       .  A
C695        H706   1.084       .  S
C696        C697   1.403   1_655  A
C696        H707   1.084       .  S
C697        C698   1.420       .  A
C697        C702   1.410       .  A
C698        C699   1.415       .  A
C699        C700   1.395       .  A
C699        H708   1.078       .  S
C700        C701   1.399       .  A
C700        H709   1.083       .  S
C701        C702   1.406       .  A
C702        H710   1.084   1_455  S
C711        C712   1.402   1_455  A
C711        C716   1.405       .  A
C712        C713   1.394       .  A
C712        H725   1.083       .  S
C713        C714   1.414       .  A
C713        H726   1.079       .  S
C714        C720   1.429       .  A
C714        C715   1.421   1_655  A
C715        C717   1.400       .  A
C715        C716   1.406       .  A
C716        H727   1.084       .  S
C717        C718   1.391       .  A
C717        H728   1.084       .  S
C718        C719   1.400       .  A
C718        H729   1.084       .  S
C719        C720   1.423   1_455  A
C719        C724   1.407       .  A
C720        C721   1.413       .  A
C721        C722   1.393       .  A
C721        H730   1.079       .  S
C722        C723   1.400       .  A
C722        H731   1.084       .  S
C723        C724   1.401   1_655  A
C724        H732   1.084       .  S
C733        C734   1.401       .  A
C733        C738   1.403       .  A
C734        C735   1.391       .  A
C734        H747   1.083       .  S
C735        C736   1.411       .  A
C735        H748   1.077       .  S
C736        C742   1.425       .  A
C736        C737   1.422       .  A
C737        C739   1.401       .  A
C737        C738   1.410       .  A
C738        H749   1.084       .  S
C739        C740   1.394       .  A
C739        H750   1.084       .  S
C740        C741   1.401       .  A
C740        H751   1.084       .  S
C741        C742   1.419       .  A
C741        C746   1.407       .  A
C742        C743   1.411       .  A
C743        C744   1.392       .  A
C743        H752   1.078       .  S
C744        C745   1.404       .  A
C744        H753   1.083       .  S
C745        C746   1.408       .  A
C746        H754   1.083       .  S
C755        C756   1.401       .  A
C755        C760   1.402       .  A
C756        C757   1.405       .  A
C756        H769   1.083   1_455  S
C757        C758   1.418       .  A
C757        H770   1.078   1_455  S
C758        C764   1.435       .  A
C758        C759   1.422       .  A
C759        C761   1.398       .  A
C759        C760   1.401       .  A
C760        H771   1.085       .  S
C761        C762   1.386       .  A
C761        H772   1.084       .  S
C762        C763   1.398       .  A
C762        H773   1.084       .  S
C763        C764   1.424       .  A
C763        C768   1.402       .  A
C764        C765   1.417       .  A
C765        C766   1.403       .  A
C765        H774   1.078   1_455  S
C766        C767   1.401       .  A
C766        H775   1.083   1_455  S
C767        C768   1.398       .  A
C768        H776   1.085       .  S
C777        C778   1.404       .  A
C777        C782   1.405   1_455  A
C778        C779   1.392       .  A
C778        H791   1.083       .  S
C779        C780   1.410       .  A
C779        H792   1.079       .  S
C780        C786   1.428       .  A
C780        C781   1.422   1_455  A
C781        C783   1.401       .  A
C781        C782   1.412       .  A
C782        H793   1.084       .  S
C783        C784   1.395       .  A
C783        H794   1.084       .  S
C784        C785   1.402       .  A
C784        H795   1.084       .  S
C785        C786   1.421   1_655  A
C785        C790   1.410       .  A
C786        C787   1.414       .  A
C787        C788   1.394       .  A
C787        H796   1.078       .  S
C788        C789   1.399       .  A
C788        H797   1.084       .  S
C789        C790   1.404   1_455  A
C790        H798   1.084       .  S
C799        C800   1.398       .  A
C799        C804   1.401       .  A
C800        C801   1.394       .  A
C800        H813   1.084       .  S
C801        C802   1.414       .  A
C801        H814   1.077       .  S
C802        C808   1.428       .  A
C802        C803   1.423       .  A
C803        C805   1.401       .  A
C803        C804   1.408       .  A
C804        H815   1.084       .  S
C805        C806   1.392       .  A
C805        H816   1.084       .  S
C806        C807   1.400       .  A
C806        H817   1.084       .  S
C807        C808   1.422       .  A
C807        C812   1.406       .  A
C808        C809   1.415       .  A
C809        C810   1.394       .  A
C809        H818   1.077       .  S
C810        C811   1.398       .  A
C810        H819   1.084       .  S
C811        C812   1.402       .  A
C812        H820   1.085       .  S
C821        C822   1.403       .  A
C821        C826   1.403   1_556  A
C822        C823   1.406       .  A
C822        H835   1.083       .  S
C823        C824   1.419       .  A
C823        H836   1.078       .  S
C824        C830   1.435       .  A
C824        C825   1.421   1_556  A
C825        C827   1.398       .  A
C825        C826   1.400       .  A
C826        H837   1.085       .  S
C827        C828   1.386       .  A
C827        H838   1.084       .  S
C828        C829   1.397       .  A
C828        H839   1.084       .  S
C829        C830   1.424   1_554  A
C829        C834   1.402       .  A
C830        C831   1.417       .  A
C831        C832   1.405       .  A
C831        H840   1.078       .  S
C832        C833   1.402       .  A
C832        H841   1.083       .  S
C833        C834   1.398   1_556  A
C834        H842   1.085       .  S
C843        C844   1.399       .  A
C843        C848   1.402       .  A
C844        C845   1.401       .  A
C844        H857   1.083       .  S
C845        C846   1.417       .  A
C845        H858   1.078       .  S
C846        C852   1.430       .  A
C846        C847   1.421       .  A
C847        C849   1.399       .  A
C847        C848   1.400       .  A
C848        H859   1.085       .  S
C849        C850   1.387       .  A
C849        H860   1.084       .  S
C850        C851   1.398       .  A
C850        H861   1.084       .  S
C851        C852   1.422       .  A
C851        C856   1.401       .  A
C852        C853   1.414       .  A
C853        C854   1.399       .  A
C853        H862   1.078       .  S
C854        C855   1.404       .  A
C854        H863   1.082       .  S
C855        C856   1.403       .  A
C856        H864   1.084       .  S
C865        C866   1.400   1_556  A
C865        C870   1.402       .  A
C866        C867   1.392       .  A
C866        H879   1.084       .  S
C867        C868   1.414   1_554  A
C867        H880   1.077       .  S
C868        C874   1.427       .  A
C868        C869   1.422       .  A
C869        C871   1.400       .  A
C869        C870   1.405       .  A
C870        H881   1.084       .  S
C871        C872   1.391       .  A
C871        H882   1.084       .  S
C872        C873   1.399       .  A
C872        H883   1.084       .  S
C873        C874   1.423       .  A
C873        C878   1.406       .  A
C874        C875   1.414   1_556  A
C875        C876   1.392       .  A
C875        H884   1.077       .  S
C876        C877   1.398   1_554  A
C876        H885   1.084       .  S
C877        C878   1.398       .  A
C878        H886   1.085       .  S
C887        C888   1.401       .  A
C887        C892   1.399       .  A
C888        C889   1.404       .  A
C888        H901   1.084       .  S
C889        C890   1.417       .  A
C889        H902   1.079       .  S
C890        C896   1.434       .  A
C890        C891   1.423       .  A
C891        C893   1.398       .  A
C891        C892   1.403       .  A
C892        H903   1.085       .  S
C893        C894   1.387       .  A
C893        H904   1.084       .  S
C894        C895   1.399       .  A
C894        H905   1.084       .  S
C895        C896   1.421       .  A
C895        C900   1.401       .  A
C896        C897   1.418       .  A
C897        C898   1.404       .  A
C897        H906   1.079       .  S
C898        C899   1.402       .  A
C898        H907   1.083       .  S
C899        C900   1.404       .  A
C900        H908   1.085       .  S
C909        C910   1.403       .  A
C909        C914   1.401       .  A
C910        C911   1.403       .  A
C910        H923   1.083       .  S
C911        C912   1.416       .  A
C911        H924   1.078       .  S
C912        C918   1.437       .  A
C912        C913   1.424       .  A
C913        C915   1.398       .  A
C913        C914   1.407       .  A
C914        H925   1.085       .  S
C915        C916   1.388       .  A
C915        H926   1.084       .  S
C916        C917   1.400       .  A
C916        H927   1.084   1_545  S
C917        C918   1.421       .  A
C917        C922   1.404       .  A
C918        C919   1.419       .  A
C919        C920   1.407       .  A
C919        H928   1.078       .  S
C920        C921   1.403       .  A
C920        H929   1.082       .  S
C921        C922   1.406       .  A
C922        H930   1.084       .  S
C931        C932   1.402       .  A
C931        C936   1.401   1_556  A
C932        C933   1.397       .  A
C932        H945   1.083       .  S
C933        C934   1.414   1_556  A
C933        H946   1.077       .  S
C934        C940   1.429       .  A
C934        C935   1.422       .  A
C935        C937   1.399       .  A
C935        C936   1.402       .  A
C936        H947   1.084       .  S
C937        C938   1.388       .  A
C937        H948   1.084       .  S
C938        C939   1.399       .  A
C938        H949   1.084       .  S
C939        C940   1.421       .  A
C939        C944   1.401       .  A
C940        C941   1.417   1_554  A
C941        C942   1.398       .  A
C941        H950   1.077       .  S
C942        C943   1.399   1_556  A
C942        H951   1.084       .  S
C943        C944   1.401       .  A
C944        H952   1.085       .  S
C953        C954   1.400       .  A
C953        C958   1.405       .  A
C954        C955   1.396       .  A
C954        H967   1.083       .  S
C955        C956   1.415       .  A
C955        H968   1.077       .  S
C956        C962   1.431       .  A
C956        C957   1.421       .  A
C957        C959   1.402       .  A
C957        C958   1.410       .  A
C958        H969   1.084   1_545  S
C959        C960   1.394       .  A
C959        H970   1.084   1_545  S
C960        C961   1.400       .  A
C960        H971   1.084   1_545  S
C961        C962   1.423       .  A
C961        C966   1.412       .  A
C962        C963   1.412       .  A
C963        C964   1.393       .  A
C963        H972   1.077       .  S
C964        C965   1.403       .  A
C964        H973   1.084       .  S
C965        C966   1.404       .  A
C966        H974   1.084       .  S
C975        C976   1.400       .  A
C975        C980   1.407       .  A
C976        C977   1.396       .  A
C976        H989   1.082       .  S
C977        C978   1.415       .  A
C977        H990   1.076       .  S
C978        C984   1.431       .  A
C978        C979   1.420       .  A
C979        C981   1.402       .  A
C979        C980   1.411       .  A
C980        H991   1.083       .  S
C981        C982   1.395       .  A
C981        H992   1.084       .  S
C982        C983   1.401       .  A
C982        H993   1.084       .  S
C983        C984   1.423       .  A
C983        C988   1.414       .  A
C984        C985   1.411       .  A
C985        C986   1.393       .  A
C985        H994   1.077       .  S
C986        C987   1.405       .  A
C986        H995   1.083       .  S
C987        C988   1.405       .  A
C988        H996   1.084       .  S
C997        C998   1.403       .  A
C997       C1002   1.402       .  A
C998        C999   1.398       .  A
C998       H1011   1.082   1_545  S
C999       C1000   1.414       .  A
C999       H1012   1.078       .  S
C1000      C1006   1.434       .  A
C1000      C1001   1.424       .  A
C1001      C1003   1.399       .  A
C1001      C1002   1.409       .  A
C1002      H1013   1.084       .  S
C1003      C1004   1.391       .  A
C1003      H1014   1.084       .  S
C1004      C1005   1.401       .  A
C1004      H1015   1.084       .  S
C1005      C1006   1.420       .  A
C1005      C1010   1.405       .  A
C1006      C1007   1.418       .  A
C1007      C1008   1.402       .  A
C1007      H1016   1.077       .  S
C1008      C1009   1.401       .  A
C1008      H1017   1.083       .  S
C1009      C1010   1.407       .  A
C1010      H1018   1.084       .  S
C1019      C1020   1.402       .  A
C1019      C1024   1.401       .  A
C1020      C1021   1.401       .  A
C1020      H1033   1.083       .  S
C1021      C1022   1.415       .  A
C1021      H1034   1.078       .  S
C1022      C1028   1.435       .  A
C1022      C1023   1.424       .  A
C1023      C1025   1.399       .  A
C1023      C1024   1.408       .  A
C1024      H1035   1.085       .  S
C1025      C1026   1.389       .  A
C1025      H1036   1.084       .  S
C1026      C1027   1.399       .  A
C1026      H1037   1.083       .  S
C1027      C1028   1.422       .  A
C1027      C1032   1.404       .  A
C1028      C1029   1.418       .  A
C1029      C1030   1.403       .  A
C1029      H1038   1.078       .  S
C1030      C1031   1.400       .  A
C1030      H1039   1.084       .  S
C1031      C1032   1.402       .  A
C1032      H1040   1.085       .  S
C1041      C1042   1.402       .  A
C1041      C1046   1.402       .  A
C1042      C1043   1.397       .  A
C1042      H1055   1.083   1_556  S
C1043      C1044   1.414       .  A
C1043      H1056   1.077   1_556  S
C1044      C1050   1.432       .  A
C1044      C1045   1.423       .  A
C1045      C1047   1.400       .  A
C1045      C1046   1.407       .  A
C1046      H1057   1.083       .  S
C1047      C1048   1.391       .  A
C1047      H1058   1.083       .  S
C1048      C1049   1.400       .  A
C1048      H1059   1.084       .  S
C1049      C1050   1.420       .  A
C1049      C1054   1.405       .  A
C1050      C1051   1.416       .  A
C1051      C1052   1.399       .  A
C1051      H1060   1.077   1_556  S
C1052      C1053   1.402       .  A
C1052      H1061   1.082   1_556  S
C1053      C1054   1.407       .  A
C1054      H1062   1.084       .  S
C1063      C1064   1.404       .  A
C1063      C1068   1.403       .  A
C1064      C1065   1.398       .  A
C1064      H1077   1.082   1_556  S
C1065      C1066   1.412       .  A
C1065      H1078   1.078   1_556  S
C1066      C1072   1.434       .  A
C1066      C1067   1.424       .  A
C1067      C1069   1.399       .  A
C1067      C1068   1.410       .  A
C1068      H1079   1.084       .  S
C1069      C1070   1.390       .  A
C1069      H1080   1.084       .  S
C1070      C1071   1.401       .  A
C1070      H1081   1.084       .  S
C1071      C1072   1.419       .  A
C1071      C1076   1.404       .  A
C1072      C1073   1.418   1_556  A
C1073      C1074   1.403       .  A
C1073      H1082   1.078       .  S
C1074      C1075   1.402   1_554  A
C1074      H1083   1.083       .  S
C1075      C1076   1.407       .  A
C1076      H1084   1.083       .  S
C1085      C1086   1.404       .  A
C1085      C1090   1.405   1_554  A
C1086      C1087   1.392       .  A
C1086      H1099   1.083       .  S
C1087      C1088   1.409       .  A
C1087      H1100   1.078       .  S
C1088      C1094   1.428       .  A
C1088      C1089   1.423   1_554  A
C1089      C1091   1.401       .  A
C1089      C1090   1.411       .  A
C1090      H1101   1.084       .  S
C1091      C1092   1.394       .  A
C1091      H1102   1.084       .  S
C1092      C1093   1.402       .  A
C1092      H1103   1.084       .  S
C1093      C1094   1.420   1_556  A
C1093      C1098   1.407       .  A
C1094      C1095   1.416       .  A
C1095      C1096   1.397       .  A
C1095      H1104   1.078       .  S
C1096      C1097   1.399   1_554  A
C1096      H1105   1.083       .  S
C1097      C1098   1.404       .  A
C1098      H1106   1.084       .  S
C1107      C1108   1.403       .  A
C1107      C1112   1.400   1_554  A
C1108      C1109   1.401       .  A
C1108      H1121   1.083       .  S
C1109      C1110   1.415       .  A
C1109      H1122   1.078       .  S
C1110      C1116   1.435       .  A
C1110      C1111   1.424   1_554  A
C1111      C1113   1.398       .  A
C1111      C1112   1.406       .  A
C1112      H1123   1.084       .  S
C1113      C1114   1.388       .  A
C1113      H1124   1.084       .  S
C1114      C1115   1.399       .  A
C1114      H1125   1.084       .  S
C1115      C1116   1.421   1_556  A
C1115      C1120   1.401       .  A
C1116      C1117   1.419       .  A
C1117      C1118   1.405       .  A
C1117      H1126   1.078       .  S
C1118      C1119   1.402       .  A
C1118      H1127   1.083       .  S
C1119      C1120   1.404   1_554  A
C1120      H1128   1.085       .  S
