geometry optimzed in LAMMPS
_audit_creation_date              2020-11-30 
_audit_creation_method            'lammps2cif' 
_symmetry_space_group_name_H-M    'P1' 
_symmetry_Int_Tables_number       1 
_symmetry_cell_setting            triclinic 
loop_ 
_symmetry_equiv_pos_as_xyz 
  x,y,z 
_cell_length_a                    33.26093871 
_cell_length_b                    31.97706952325452 
_cell_length_c                    32.968569715835216 
_cell_angle_alpha                 89.99173528857668 
_cell_angle_beta                  90.03192618835008 
_cell_angle_gamma                 90.55986841090217 
loop_ 
_atom_site_label 
_atom_site_type_symbol 
_atom_site_fract_x 
_atom_site_fract_y 
_atom_site_fract_z 
_atom_site_charge 
C1          C  0.25223788  0.27139965  0.46798764     0.04600
C2          C  0.21866849  0.29767897  0.46310063    -0.11500
C3          C  0.21837932  0.33868993  0.97995261     0.02100
C4          C  0.25414612  0.35701198  0.99329855    -0.10000
C5          C  0.28849718  0.33290541  0.99675176     0.04600
C6          C  0.28774460  0.29059546  0.48305561    -0.09500
H7          H  0.19022309  0.28388825  0.45393622     0.10200
H8          H  0.25309655  0.38685058  0.00888517     0.07700
H9          H  0.31361809  0.27140509  0.48938912     0.07600
C10         C  0.24765244  0.22357515  0.46800578     0.04600
C11         C  0.21220158  0.20438418  0.48317665    -0.11500
C12         C  0.21150700  0.16207916  0.99687061     0.02100
C13         C  0.24584394  0.13796075  0.99338258    -0.10000
C14         C  0.28158364  0.15626485  0.97996885     0.04600
C15         C  0.28120204  0.19729294  0.46303656    -0.09500
H16         H  0.18634788  0.22357381  0.48955964     0.10200
H17         H  0.24692355  0.10812592  0.00898235     0.07700
H18         H  0.30961168  0.21108363  0.45378799     0.07600
C19         C  0.27475170  0.50020050  0.24964529     0.04600
C20         C  0.29716840  0.51218304  0.21522393    -0.11500
C21         C  0.34009571  0.51284069  0.21535824     0.02100
C22         C  0.36083281  0.49828070  0.24918341    -0.10000
C23         C  0.33950571  0.48483249  0.28322757     0.04600
C24         C  0.29671469  0.48753335  0.28390436    -0.09500
H25         H  0.28119524  0.52288358  0.18859589     0.10200
H26         H  0.39336092  0.49745099  0.24906061     0.07700
H27         H  0.28038700  0.47736430  0.31061764     0.07600
C28         C  0.22891876  0.49994879  0.24942824     0.04600
C29         C  0.20718212  0.48693012  0.21501331    -0.11500
C30         C  0.16437562  0.48439149  0.21490860     0.02100
C31         C  0.14280948  0.49826614  0.24852527    -0.10000
C32         C  0.16332066  0.51316458  0.28257523     0.04600
C33         C  0.20628225  0.51227357  0.28345438    -0.09500
H34         H  0.22371703  0.47662051  0.18860727     0.10200
H35         H  0.11027772  0.49756788  0.24822313     0.07700
H36         H  0.22212545  0.52325477  0.31017719     0.07600
O37         O  0.32028420  0.43495200  0.00884770    -0.71400
O38         O  0.31890014  0.05867001  0.98677796    -0.72400
O39         O  0.32198778  0.48587834  0.43959193    -0.61000
O40         O  0.32487259  0.50991636  0.05888219    -0.69500
O41         O  0.39144351  0.50681593  0.05694065    -0.69000
O42         O  0.38853393  0.49044166  0.44014026    -0.60300
O43         O  0.38513983  0.06040508  0.98975282    -0.72800
O44         O  0.38652563  0.43482904  0.00568215    -0.71500
Cu45       Cu  0.31943060  0.49795636  0.99907008     1.04600
Cu46       Cu  0.39049816  0.49869448  0.99825756     1.04300
C47         C  0.35311982  0.41454511  0.00922320     0.94800
C48         C  0.35165436  0.07999339  0.98729793     0.93900
C49         C  0.35598931  0.48293519  0.42171966     0.86000
C50         C  0.35928027  0.51327774  0.07623951     0.92300
N51         N  0.37869529  0.51156325  0.15022290    -0.02000
C52         C  0.36227882  0.53356129  0.18174308     0.00600
C53         C  0.34435798  0.56980419  0.16769661    -0.22300
C54         C  0.34223677  0.56639420  0.12678658    -0.22500
C55         C  0.36182847  0.53017009  0.11716628     0.00500
H56         H  0.32672535  0.59144052  0.18545078     0.14300
H57         H  0.32556258  0.58640477  0.10645038     0.14300
N58         N  0.35018752  0.12574696  0.98990894    -0.02000
C59         C  0.31712611  0.14573916  0.00443581     0.00600
C60         C  0.32753110  0.17581380  0.03291854    -0.22300
C61         C  0.36787541  0.17992852  0.03126005    -0.22500
C62         C  0.38081858  0.15028321  0.00412810     0.00500
H63         H  0.30760874  0.19811689  0.04704682     0.14300
H64         H  0.38582637  0.20351385  0.04663784     0.14300
O65         O  0.43891605  0.49694900  0.38371702    -0.71400
O66         O  0.06239124  0.49945652  0.38245895    -0.72400
O67         O  0.00174153  0.05790116  0.38544557    -0.61000
O68         O  0.99853459  0.43709585  0.38535717    -0.69500
O69         O  0.99107041  0.43796978  0.31856723    -0.69000
O70         O  0.00915855  0.05715669  0.31865604    -0.60300
O71         O  0.06161964  0.49611822  0.31570036    -0.72800
O72         O  0.43858894  0.50432482  0.31725610    -0.71500
Cu73       Cu  0.00069953  0.49817275  0.38729488     1.04600
Cu74       Cu  0.50004602  0.50026788  0.31586985     1.04300
C75         C  0.41922668  0.49734057  0.35011722     0.94800
C76         C  0.08157189  0.50092122  0.34858627     0.93900
C77         C  0.01185427  0.07603832  0.35289193     0.86000
C78         C  0.98838520  0.41902579  0.35277466     0.92300
N79         N  0.02124574  0.15062425  0.37651808    -0.02000
C80         C  0.04238006  0.18256422  0.35906212     0.00600
C81         C  0.07459718  0.16631012  0.33753332    -0.22300
C82         C  0.06651615  0.12472814  0.33254147    -0.22500
C83         C  0.03280360  0.11639302  0.35530062     0.00500
H84         H  0.09514956  0.18390345  0.31842992     0.14300
H85         H  0.08161415  0.10365701  0.31203966     0.14300
N86         N  0.12425940  0.51338559  0.34741523    -0.02000
C87         C  0.14093704  0.53472248  0.31538726     0.00600
C88         C  0.15959313  0.57120494  0.32881408    -0.22300
C89         C  0.16217807  0.56823511  0.36977468    -0.22500
C90         C  0.14196761  0.53214126  0.37994179     0.00500
H91         H  0.17758438  0.59251420  0.31063484     0.14300
H92         H  0.17955249  0.58837224  0.38970545     0.14300
O93         O  0.11351804  0.06016041  0.00577996    -0.71400
O94         O  0.11489372  0.43460209  0.98979646    -0.72400
O95         O  0.11188202  0.48928698  0.05659403    -0.61000
O96         O  0.11198594  0.50776942  0.43963944    -0.69500
O97         O  0.17854613  0.51178350  0.43794107    -0.69000
O98         O  0.17849411  0.48703716  0.05707923    -0.60300
O99         O  0.18113859  0.43631057  0.98699087    -0.72800
O100        O  0.17975599  0.06003064  0.00910398    -0.71500
Cu101      Cu  0.11126028  0.49842079  0.99789473     1.04600
Cu102      Cu  0.18232869  0.49933343  0.99726585     1.04300
C103        C  0.14692049  0.08043988  0.00939534     0.94800
C104        C  0.14837448  0.41500257  0.98740392     0.93900
C105        C  0.14455889  0.48311925  0.07519119     0.86000
C106        C  0.14428220  0.51515880  0.42066310     0.92300
O107        O  0.44024008  0.49330556  0.18353151    -0.71400
O108        O  0.06446081  0.49951236  0.18359830    -0.72400
O109        O  0.99054624  0.06024991  0.18050833    -0.61000
O110        O  0.50939994  0.43466848  0.18047130    -0.69500
O111        O  0.50636529  0.43706485  0.11329738    -0.69000
O112        O  0.99355963  0.05789168  0.11333660    -0.60300
O113        O  0.06399611  0.49953480  0.11671153    -0.72800
O114        O  0.44078514  0.49690145  0.11672006    -0.71500
Cu115      Cu  0.00241776  0.49623953  0.18528748     1.04600
Cu116      Cu  0.50245907  0.49817678  0.11374232     1.04300
C117        C  0.42101284  0.49840895  0.15014263     0.97200
C118        C  0.08373933  0.49654998  0.15002642     0.93900
C119        C  0.48558097  0.07730261  0.14582341     0.86000
C120        C  0.01436491  0.41764054  0.14578510     0.92300
O121        O  0.99133418  0.18572865  0.06147374    -0.71400
O122        O  0.51044876  0.18451900  0.43965551    -0.72400
O123        O  0.44235374  0.18388304  0.99266394    -0.61000
O124        O  0.05940927  0.18267940  0.01206303    -0.69500
O125        O  0.05719095  0.11333210  0.01107621    -0.69000
O126        O  0.44105200  0.11450195  0.99183140    -0.60300
O127        O  0.00875113  0.11550801  0.43924024    -0.72800
O128        O  0.98955024  0.11669643  0.06124518    -0.71500
Cu129      Cu  0.50106123  0.18667774  0.00083767     1.04600
Cu130      Cu  0.99922156  0.11266050  0.00036954     1.04300
C131        C  0.98718869  0.15131905  0.08073179     0.94800
C132        C  0.01233723  0.15013668  0.41989054     0.93900
C133        C  0.42307001  0.14913774  0.99355540     0.86000
C134        C  0.07603007  0.14728973  0.01765033     0.92300
N135        N  0.97695579  0.15158616  0.12362254    -0.02000
C136        C  0.45594859  0.18311344  0.14115485     0.00600
C137        C  0.42339411  0.16629582  0.16225687    -0.22300
C138        C  0.43072450  0.12459339  0.16633611    -0.22500
C139        C  0.96442628  0.11691868  0.14355732     0.00500
H140        H  0.40296415  0.18341753  0.18154386     0.14300
H141        H  0.41528610  0.10302474  0.18640530     0.14300
N142        N  0.12617441  0.48410569  0.14956248    -0.02000
C143        C  0.14349944  0.46277481  0.18098808     0.00600
C144        C  0.16299582  0.42752274  0.16674487    -0.22300
C145        C  0.16462353  0.43104674  0.12578760    -0.22500
C146        C  0.14330540  0.46624220  0.11626404     0.00500
H147        H  0.18164331  0.40669207  0.18437139     0.14300
H148        H  0.18193508  0.41180310  0.10532207     0.14300
N149        N  0.14744896  0.12563410  0.01648584    -0.02000
C150        C  0.18054922  0.14881968  0.02674224     0.00600
C151        C  0.17083020  0.17791903  0.05625624    -0.22300
C152        C  0.13009507  0.17733302  0.05960670    -0.22500
C153        C  0.11661331  0.14632275  0.03389314     0.00500
H154        H  0.19011846  0.20288093  0.06742051     0.14300
H155        H  0.11209828  0.20052349  0.07493385     0.14300
O156        O  0.01047197  0.37827422  0.06117636    -0.71400
O157        O  0.49126555  0.37953630  0.43915514    -0.72400
O158        O  0.44283801  0.38164857  0.01093186    -0.61000
O159        O  0.05896862  0.38049458  0.99180867    -0.69500
O160        O  0.05767012  0.31111271  0.99266831    -0.69000
O161        O  0.44061607  0.31230050  0.01189854    -0.60300
O162        O  0.98962122  0.31052571  0.43955251    -0.72800
O163        O  0.00866122  0.30924104  0.06140730    -0.71500
Cu164      Cu  0.50080047  0.38232975  0.00028473     1.04600
Cu165      Cu  0.99896226  0.30831400  0.00075255     1.04300
C166        C  0.01280784  0.34364531  0.08067070     0.94800
C167        C  0.98771161  0.34491548  0.41978992     0.93900
C168        C  0.42400267  0.34768812  0.01748771     0.86000
C169        C  0.07695073  0.34585942  0.99357249     0.92300
N170        N  0.02300302  0.34336581  0.12358366    -0.02000
C171        C  0.04400781  0.31183996  0.14115419     0.00600
C172        C  0.07657003  0.32865453  0.16227764    -0.22300
C173        C  0.06924323  0.37035751  0.16633751    -0.22500
C174        C  0.03553716  0.37803055  0.14352476     0.00500
H175        H  0.09699921  0.31153174  0.18159260     0.14300
H176        H  0.08467912  0.39192231  0.18642409     0.14300
N177        N  0.14982171  0.36924530  0.98995884    -0.02000
C178        C  0.18289330  0.34922073  0.00445635     0.00600
C179        C  0.17251999  0.31914046  0.03294192    -0.22300
C180        C  0.13216967  0.31505513  0.03130874    -0.22500
C181        C  0.11920222  0.34471964  0.00418589     0.00500
H182        H  0.19245241  0.29681376  0.04704832     0.14300
H183        H  0.11423083  0.29146490  0.04668003     0.14300
N184        N  0.97882171  0.34444247  0.37640183    -0.02000
C185        C  0.95762268  0.31254925  0.35892852     0.00600
C186        C  0.42547721  0.32887878  0.33731716    -0.22300
C187        C  0.43367758  0.37043267  0.33229326    -0.22500
C188        C  0.96738398  0.37869359  0.35511821     0.00500
H189        H  0.40489169  0.31132976  0.31819406     0.14300
H190        H  0.41864803  0.39153347  0.31174556     0.14300
N191        N  0.37670398  0.48441119  0.34871941    -0.02000
C192        C  0.36064043  0.46302416  0.31651148     0.00600
C193        C  0.34101232  0.42700815  0.32970793    -0.22300
C194        C  0.33731758  0.43048225  0.37054495    -0.22500
C195        C  0.35794524  0.46626104  0.38095053     0.00500
H196        H  0.32316355  0.40586079  0.31119740     0.14300
H197        H  0.31925660  0.41073045  0.39020394     0.14300
N198        N  0.35258694  0.36934930  0.01632611    -0.02000
C199        C  0.31949753  0.34617170  0.02660438     0.00600
C200        C  0.32925122  0.31707507  0.05612819    -0.22300
C201        C  0.36999046  0.31764626  0.05945879    -0.22500
C202        C  0.38343992  0.34865028  0.03372826     0.00500
H203        H  0.30997236  0.29212075  0.06731071     0.14300
H204        H  0.38800437  0.29445429  0.07478968     0.14300
C205        C  0.99997451  0.24748771  0.27282742     0.04600
C206        C  0.01823468  0.21545096  0.29451453    -0.11500
C207        C  0.02021603  0.21614412  0.33756131     0.02100
C208        C  0.99996714  0.24752982  0.35885342    -0.10000
C209        C  0.97972452  0.27889847  0.33749771     0.04600
C210        C  0.98170769  0.27954160  0.29445227    -0.09500
H211        H  0.03169999  0.19026390  0.27743102     0.10200
H212        H  0.99997200  0.24754623  0.39161780     0.07700
H213        H  0.96825886  0.30471651  0.27731624     0.07600
C214        C  0.50000084  0.24748084  0.22758573     0.04600
C215        C  0.48000070  0.21614723  0.20592445    -0.11500
C216        C  0.47836308  0.21672056  0.16287262     0.02100
C217        C  0.49997175  0.24748659  0.14162254    -0.10000
C218        C  0.52160186  0.27824625  0.16287372     0.04600
C219        C  0.51999221  0.27881512  0.20592628    -0.09500
H220        H  0.46528843  0.19144320  0.22301003     0.10200
H221        H  0.49995691  0.24749175  0.10889504     0.07700
H222        H  0.53471325  0.30351933  0.22301349     0.07600
C223        C  0.25226856  0.27139317  0.96798560     0.04600
C224        C  0.21870265  0.29767047  0.96307037    -0.11500
C225        C  0.21836241  0.33870327  0.47997447     0.02100
C226        C  0.25413777  0.35701643  0.49330773    -0.10000
C227        C  0.28848454  0.33290212  0.49674764     0.04600
C228        C  0.28776649  0.29059405  0.98307010    -0.09500
H229        H  0.19026415  0.28387638  0.95388765     0.10200
H230        H  0.25309983  0.38685473  0.50889576     0.07700
H231        H  0.31363819  0.27140637  0.98941964     0.07600
C232        C  0.24767913  0.22356891  0.96801256     0.04600
C233        C  0.21221649  0.20438465  0.98316564    -0.11500
C234        C  0.21150776  0.16207878  0.49688093     0.02100
C235        C  0.24585031  0.13796952  0.49338294    -0.10000
C236        C  0.28157957  0.15628183  0.47995106     0.04600
C237        C  0.28122799  0.19728166  0.96306667    -0.09500
H238        H  0.18636389  0.22357977  0.98953623     0.10200
H239        H  0.24694381  0.10813741  0.50898670     0.07700
H240        H  0.30964623  0.21106705  0.95383786     0.07600
C241        C  0.27475576  0.50019682  0.74964209     0.04600
C242        C  0.29717220  0.51218452  0.71522295    -0.11500
C243        C  0.34009899  0.51284601  0.71535909     0.02100
C244        C  0.36083718  0.49828781  0.74918427    -0.10000
C245        C  0.33951104  0.48483347  0.78322648     0.04600
C246        C  0.29671913  0.48752749  0.78390092    -0.09500
H247        H  0.28119896  0.52288526  0.68859479     0.10200
H248        H  0.39336536  0.49746250  0.74906230     0.07700
H249        H  0.28039147  0.47735425  0.81061265     0.07600
C250        C  0.22892286  0.49994789  0.74942469     0.04600
C251        C  0.20718277  0.48693774  0.71500823    -0.11500
C252        C  0.16437541  0.48440514  0.71490582     0.02100
C253        C  0.14281345  0.49827893  0.74852489    -0.10000
C254        C  0.16332863  0.51316842  0.78257544     0.04600
C255        C  0.20628960  0.51227022  0.78345312    -0.09500
H256        H  0.22371482  0.47662959  0.68859997     0.10200
H257        H  0.11028138  0.49758551  0.74822458     0.07700
H258        H  0.22213521  0.52324422  0.81017711     0.07600
O259        O  0.32027751  0.43493118  0.50884917    -0.71400
O260        O  0.31890287  0.05870443  0.48679273    -0.72400
O261        O  0.32199899  0.48589520  0.93958828    -0.61000
O262        O  0.32486452  0.50989222  0.55888710    -0.69500
O263        O  0.39143568  0.50679542  0.55694240    -0.69000
O264        O  0.38854506  0.49045874  0.94013721    -0.60300
O265        O  0.38514276  0.06043680  0.48975578    -0.72800
O266        O  0.38651860  0.43481013  0.50568308    -0.71500
Cu267      Cu  0.31942006  0.49793507  0.49907496     1.04600
Cu268      Cu  0.39048781  0.49867579  0.49826005     1.04300
C269        C  0.35311348  0.41452523  0.50922440     0.94800
C270        C  0.35165798  0.08002681  0.48730373     0.93900
C271        C  0.35600059  0.48295036  0.92171669     0.86000
C272        C  0.35927305  0.51325672  0.57624219     0.92300
N273        N  0.37869229  0.51155542  0.65022413    -0.02000
C274        C  0.36228080  0.53356098  0.68174122     0.00600
C275        C  0.34436122  0.56980241  0.66768971    -0.22300
C276        C  0.34223567  0.56638396  0.62678048    -0.22500
C277        C  0.36182309  0.53015579  0.61716575     0.00500
H278        H  0.32673180  0.59144374  0.68544165     0.14300
H279        H  0.32556176  0.58639212  0.60644165     0.14300
N280        N  0.35019380  0.12578182  0.48990419    -0.02000
C281        C  0.31713262  0.14578680  0.50441665     0.00600
C282        C  0.32753911  0.17588656  0.53287381    -0.22300
C283        C  0.36788305  0.17999805  0.53121264    -0.22500
C284        C  0.38082687  0.15032739  0.50410673     0.00500
H285        H  0.30761743  0.19820055  0.54698682     0.14300
H286        H  0.38583412  0.20359458  0.54657428     0.14300
O287        O  0.43892943  0.49694205  0.88371417    -0.71400
O288        O  0.06240469  0.49944820  0.88245973    -0.72400
O289        O  0.00175037  0.05787096  0.88545279    -0.61000
O290        O  0.99854260  0.43709215  0.88535197    -0.69500
O291        O  0.99108353  0.43797169  0.81856171    -0.69000
O292        O  0.00916636  0.05713297  0.81866293    -0.60300
O293        O  0.06163278  0.49611837  0.81570078    -0.72800
O294        O  0.43860366  0.50432139  0.81725364    -0.71500
Cu295      Cu  0.00071276  0.49816935  0.88729470     1.04600
Cu296      Cu  0.50006056  0.50026146  0.81586940     1.04300
C297        C  0.41924027  0.49733845  0.85011425     0.94800
C298        C  0.08158527  0.50091553  0.84858707     0.93900
C299        C  0.01186050  0.07601209  0.85290021     0.86000
C300        C  0.98839727  0.41902392  0.85276725     0.92300
N301        N  0.02124084  0.15060108  0.87652230    -0.02000
C302        C  0.04238291  0.18253994  0.85907372     0.00600
C303        C  0.07460639  0.16628442  0.83755578    -0.22300
C304        C  0.06652724  0.12470210  0.83256410    -0.22500
C305        C  0.03280665  0.11636848  0.85531149     0.00500
H306        H  0.09516576  0.18387657  0.81845928     0.14300
H307        H  0.08163300  0.10362917  0.81206986     0.14300
N308        N  0.12427364  0.51337572  0.84741630    -0.02000
C309        C  0.14095004  0.53472055  0.81539318     0.00600
C310        C  0.15961264  0.57119605  0.82882848    -0.22300
C311        C  0.16220398  0.56821137  0.86978737    -0.22500
C312        C  0.14198941  0.53211741  0.87994567     0.00500
H313        H  0.17760454  0.59250884  0.81065310     0.14300
H314        H  0.17958362  0.58833957  0.88972229     0.14300
O315        O  0.11352405  0.06016045  0.50577469    -0.71400
O316        O  0.11488178  0.43463488  0.48980307    -0.72400
O317        O  0.11187062  0.48932040  0.55659851    -0.61000
O318        O  0.11200410  0.50773654  0.93963611    -0.69500
O319        O  0.17856477  0.51174507  0.93793993    -0.69000
O320        O  0.17848270  0.48707108  0.55708201    -0.60300
O321        O  0.18112677  0.43634713  0.48699330    -0.72800
O322        O  0.17976242  0.06002953  0.50909890    -0.71500
Cu323      Cu  0.11124623  0.49845374  0.49789961     1.04600
Cu324      Cu  0.18231440  0.49937025  0.49726846     1.04300
C325        C  0.14692688  0.08043815  0.50939321     0.94800
C326        C  0.14836376  0.41503723  0.48741043     0.93900
C327        C  0.14454783  0.48315098  0.57519429     0.86000
C328        C  0.14430160  0.51512531  0.92066203     0.92300
O329        O  0.44023603  0.49330013  0.68353352    -0.71400
O330        O  0.06444767  0.49952171  0.68360339    -0.72400
O331        O  0.99056192  0.06025333  0.68050373    -0.61000
O332        O  0.50939680  0.43466862  0.68047712    -0.69500
O333        O  0.50636429  0.43706471  0.61330318    -0.69000
O334        O  0.99357028  0.05789010  0.61333161    -0.60300
O335        O  0.06398287  0.49954643  0.61671668    -0.72800
O336        O  0.44078127  0.49689484  0.61672182    -0.71500
Cu337      Cu  0.00240369  0.49624321  0.68529065     1.04600
Cu338      Cu  0.50245345  0.49817608  0.61374577     1.04300
C339        C  0.42100918  0.49840178  0.65014424     0.97200
C340        C  0.08372677  0.49656366  0.65003127     0.93900
C341        C  0.48559793  0.07729671  0.64581593     0.86000
C342        C  0.01435443  0.41764493  0.64578925     0.92300
O343        O  0.99135086  0.18573484  0.56147713    -0.71400
O344        O  0.51042557  0.18449566  0.93965310    -0.72400
O345        O  0.44237451  0.18390756  0.49266015    -0.61000
O346        O  0.05942700  0.18268235  0.51206981    -0.69500
O347        O  0.05719653  0.11333531  0.51107546    -0.69000
O348        O  0.44105700  0.11452709  0.49182511    -0.60300
O349        O  0.00874433  0.11548717  0.93924462    -0.72800
O350        O  0.98955465  0.11670269  0.56124043    -0.71500
Cu351      Cu  0.50108016  0.18669068  0.50084075     1.04600
Cu352      Cu  0.99922652  0.11267509  0.50036530     1.04300
C353        C  0.98719937  0.15132327  0.58073102     0.94800
C354        C  0.01232423  0.15011497  0.91989245     0.93900
C355        C  0.42308214  0.14916735  0.49354726     0.86000
C356        C  0.07604058  0.14728911  0.51765595     0.92300
N357        N  0.97696781  0.15158569  0.62362188    -0.02000
C358        C  0.45595478  0.18310223  0.64115580     0.00600
C359        C  0.42340271  0.16628011  0.66225837    -0.22300
C360        C  0.43073486  0.12457739  0.66633088    -0.22500
C361        C  0.96443551  0.11691687  0.64355187     0.00500
H362        H  0.40297400  0.18339819  0.68155011     0.14300
H363        H  0.41530003  0.10300548  0.68639960     0.14300
N364        N  0.12616440  0.48412736  0.64956559    -0.02000
C365        C  0.14349213  0.46279263  0.68098723     0.00600
C366        C  0.16298416  0.42754007  0.66673929    -0.22300
C367        C  0.16460949  0.43106882  0.62578244    -0.22500
C368        C  0.14329434  0.46626786  0.61626466     0.00500
H369        H  0.18163163  0.40670640  0.68436206     0.14300
H370        H  0.18191850  0.41182649  0.60531368     0.14300
N371        N  0.14745607  0.12562954  0.51649184    -0.02000
C372        C  0.18055763  0.14880834  0.52675477     0.00600
C373        C  0.17084020  0.17789928  0.55627715    -0.22300
C374        C  0.13010447  0.17731552  0.55962645    -0.22500
C375        C  0.11662125  0.14631354  0.53390410     0.00500
H376        H  0.19012977  0.20285780  0.56744695     0.14300
H377        H  0.11210886  0.20050353  0.57495825     0.14300
O378        O  0.01045174  0.37827794  0.56118481    -0.71400
O379        O  0.49127582  0.37952817  0.93914578    -0.72400
O380        O  0.44282619  0.38163651  0.51093800    -0.61000
O381        O  0.05895348  0.38051938  0.49182211    -0.69500
O382        O  0.05767584  0.31113665  0.49267177    -0.69000
O383        O  0.44061953  0.31228825  0.51190121    -0.60300
O384        O  0.98961905  0.31052220  0.93954821    -0.72800
O385        O  0.00866744  0.30924440  0.56141018    -0.71500
Cu386      Cu  0.50078757  0.38233406  0.50029482     1.04600
Cu387      Cu  0.99896783  0.30831773  0.50075597     1.04300
C388        C  0.01280092  0.34364857  0.58067632     0.94800
C389        C  0.98771991  0.34491151  0.91978335     0.93900
C390        C  0.42399781  0.34767157  0.51749025     0.86000
C391        C  0.07694563  0.34588965  0.49358379     0.92300
N392        N  0.02299803  0.34336945  0.62358881    -0.02000
C393        C  0.04401333  0.31184829  0.64115464     0.00600
C394        C  0.07657565  0.32866962  0.66227253    -0.22300
C395        C  0.06924009  0.37037022  0.66633577    -0.22500
C396        C  0.03552832  0.37803613  0.64352952     0.00500
H397        H  0.09701307  0.31155094  0.68158206     0.14300
H398        H  0.08467582  0.39193822  0.68641892     0.14300
N399        N  0.14981317  0.36928035  0.48997050    -0.02000
C400        C  0.18288422  0.34926218  0.50447833     0.00600
C401        C  0.17251043  0.31920199  0.53298345    -0.22300
C402        C  0.13215980  0.31511703  0.53135259    -0.22500
C403        C  0.11919405  0.34476331  0.50421041     0.00500
H404        H  0.19244200  0.29688168  0.54710097     0.14300
H405        H  0.11421997  0.29153526  0.54673520     0.14300
N406        N  0.97883639  0.34443796  0.87639383    -0.02000
C407        C  0.95764394  0.31254183  0.85891761     0.00600
C408        C  0.42548911  0.32886866  0.83730500    -0.22300
C409        C  0.43369483  0.37042092  0.83227623    -0.22500
C410        C  0.96740161  0.37868757  0.85510520     0.00500
H411        H  0.40490324  0.31131944  0.81818216     0.14300
H412        H  0.41866767  0.39152179  0.81172633     0.14300
N413        N  0.37671528  0.48441753  0.84871625    -0.02000
C414        C  0.36064969  0.46302794  0.81651056     0.00600
C415        C  0.34102403  0.42701221  0.82971091    -0.22300
C416        C  0.33732962  0.43049076  0.87054761    -0.22500
C417        C  0.35795630  0.46627137  0.88094916     0.00500
H418        H  0.32317517  0.40586220  0.81120278     0.14300
H419        H  0.31926938  0.41074079  0.89020884     0.14300
N420        N  0.35258063  0.36932961  0.51632806    -0.02000
C421        C  0.31949073  0.34615064  0.52660024     0.00600
C422        C  0.32924338  0.31704258  0.55611389    -0.22300
C423        C  0.36998245  0.31761127  0.55944479    -0.22500
C424        C  0.38343287  0.34862412  0.53372469     0.00500
H425        H  0.30996324  0.29208611  0.56728946     0.14300
H426        H  0.38799562  0.29441454  0.57476968     0.14300
C427        C  0.00001347  0.24747544  0.77283068     0.04600
C428        C  0.01826006  0.21543330  0.79452201    -0.11500
C429        C  0.02023001  0.21612518  0.83756920     0.02100
C430        C  0.99998217  0.24751572  0.85885660    -0.10000
C431        C  0.97975245  0.27888985  0.83749535     0.04600
C432        C  0.98174928  0.27953391  0.79445098    -0.09500
H433        H  0.03172336  0.19024252  0.77744203     0.10200
H434        H  0.99997713  0.24753131  0.89162103     0.07700
H435        H  0.96830955  0.30471166  0.77731172     0.07600
C436        C  0.50001188  0.24745969  0.72758926     0.04600
C437        C  0.48001511  0.21612527  0.70592626    -0.11500
C438        C  0.47836894  0.21670749  0.66287509     0.02100
C439        C  0.49996839  0.24748115  0.64162620    -0.10000
C440        C  0.52159809  0.27823987  0.66287858     0.04600
C441        C  0.51999423  0.27880171  0.70593145    -0.09500
H442        H  0.46530894  0.19141575  0.72300977     0.10200
H443        H  0.49994692  0.24749274  0.60889873     0.07700
H444        H  0.53471252  0.30350652  0.72301987     0.07600
C445        C  0.25189597  0.77146482  0.46325654     0.04600
C446        C  0.21772804  0.79726700  0.45973993    -0.11500
C447        C  0.21685358  0.83760199  0.97808277     0.02100
C448        C  0.25251685  0.85609813  0.99146252    -0.10000
C449        C  0.28733998  0.83255372  0.99341487     0.04600
C450        C  0.28734696  0.79103618  0.47789848    -0.09500
H451        H  0.18935700  0.78332023  0.45058381     0.10200
H452        H  0.25113332  0.88506474  0.00851204     0.07700
H453        H  0.31374730  0.77235148  0.48329548     0.07600
C454        C  0.24809778  0.72351780  0.46327771     0.04600
C455        C  0.21267291  0.70396346  0.47796824    -0.11500
C456        C  0.21270431  0.66241410  0.99351398     0.02100
C457        C  0.24752055  0.63886361  0.99150798    -0.10000
C458        C  0.28315047  0.65735098  0.97805175     0.04600
C459        C  0.28225289  0.69770516  0.45974376    -0.09500
H460        H  0.18628682  0.72265606  0.48337408     0.10200
H461        H  0.24894826  0.60989941  0.00856618     0.07700
H462        H  0.31060917  0.71164463  0.45055837     0.07600
C463        C  0.27116582  0.99515537  0.24939479     0.04600
C464        C  0.29282206  0.00816845  0.21494840    -0.11500
C465        C  0.33562769  0.01072040  0.21479484     0.02100
C466        C  0.35727098  0.99687767  0.24840066    -0.10000
C467        C  0.33683990  0.98197968  0.28247806     0.04600
C468        C  0.29388049  0.98285067  0.28340387    -0.09500
H469        H  0.27622422  0.01845160  0.18855135     0.10200
H470        H  0.38980166  0.99759138  0.24807063     0.07700
H471        H  0.27810132  0.97186322  0.31014796     0.07600
C472        C  0.22533464  0.99488790  0.24966245     0.04600
C473        C  0.20284149  0.98287185  0.21528017    -0.11500
C474        C  0.15991482  0.98220167  0.21546949     0.02100
C475        C  0.13925303  0.99678690  0.24930643    -0.10000
C476        C  0.16065726  0.01026186  0.28331514     0.04600
C477        C  0.20344999  0.00757100  0.28393702    -0.09500
H478        H  0.21875486  0.97215205  0.18864349     0.10200
H479        H  0.10672471  0.99761066  0.24921715     0.07700
H480        H  0.21984124  0.01775074  0.31062231     0.07600
O481        O  0.31866043  0.93274519  0.00719722    -0.71400
O482        O  0.32044434  0.56104180  0.98907989    -0.72400
O483        O  0.32159782  0.98329674  0.43770428    -0.61000
O484        O  0.32146478  0.00789003  0.05683916    -0.69500
O485        O  0.38807720  0.00566983  0.05651408    -0.69000
O486        O  0.38815674  0.98735095  0.43955803    -0.60300
O487        O  0.38671374  0.56264134  0.99105857    -0.72800
O488        O  0.38497365  0.93287160  0.00609851    -0.71500
Cu489      Cu  0.31772895  0.99563246  0.99701581     1.04600
Cu490      Cu  0.38879615  0.99658270  0.99782189     1.04300
C491        C  0.35156088  0.91251969  0.00890998     0.94800
C492        C  0.35322091  0.58230579  0.98924032     0.93900
C493        C  0.35588652  0.97994609  0.42050891     0.86000
C494        C  0.35537547  0.01181801  0.07503167     0.92300
N495        N  0.37374059  0.01091074  0.14943615    -0.02000
C496        C  0.35642530  0.03228515  0.18081429     0.00600
C497        C  0.33688202  0.06749008  0.16649654    -0.22300
C498        C  0.33523045  0.06389623  0.12554590    -0.22500
C499        C  0.35657352  0.02870559  0.11609653     0.00500
H500        H  0.31823821  0.08834101  0.18407733     0.14300
H501        H  0.31790591  0.08310298  0.10503415     0.14300
N502        N  0.35189819  0.62804671  0.99213344    -0.02000
C503        C  0.31824517  0.64889494  0.00395162     0.00600
C504        C  0.32721144  0.67994950  0.03190095    -0.22300
C505        C  0.36763201  0.68299156  0.03337959    -0.22500
C506        C  0.38190178  0.65219359  0.00820877     0.00500
H507        H  0.30672332  0.70293452  0.04400092     0.14300
H508        H  0.38489361  0.70679062  0.04923209     0.14300
O509        O  0.43785315  0.99556610  0.38242858    -0.71400
O510        O  0.06132944  0.99803434  0.38374793    -0.72400
O511        O  0.00291281  0.55936432  0.38894360    -0.61000
O512        O  0.99733280  0.93563262  0.38885237    -0.69500
O513        O  0.99111382  0.93285670  0.32192472    -0.69000
O514        O  0.00908576  0.56226652  0.32202134    -0.60300
O515        O  0.06162636  0.99079479  0.31727882    -0.72800
O516        O  0.43860054  0.99904214  0.31567269    -0.71500
Cu517      Cu  0.99955611  0.99682139  0.38729355     1.04600
Cu518      Cu  0.50016582  0.99487054  0.31586880     1.04300
C519        C  0.41865973  0.99418232  0.34853734     0.94800
C520        C  0.08100473  0.99771068  0.35016304     0.93900
C521        C  0.01261189  0.57915350  0.35715496     0.86000
C522        C  0.98760047  0.91590738  0.35703318     0.92300
N523        N  0.02292268  0.65280486  0.38251065    -0.02000
C524        C  0.04455397  0.68467517  0.36567523     0.00600
C525        C  0.07710435  0.66843715  0.34468904    -0.22300
C526        C  0.06868144  0.62700159  0.33910311    -0.22500
C527        C  0.03455549  0.61873301  0.36124288     0.00500
H528        H  0.09800593  0.68606147  0.32599687     0.14300
H529        H  0.08356041  0.60615625  0.31825743     0.14300
N530        N  0.12352703  0.01064614  0.34881724    -0.02000
C531        C  0.13960040  0.03205154  0.31663565     0.00600
C532        C  0.15928223  0.06802370  0.32987642    -0.22300
C533        C  0.16298179  0.06450401  0.37071453    -0.22500
C534        C  0.14230997  0.02874452  0.38108223     0.00500
H535        H  0.17714260  0.08917503  0.31139516     0.14300
H536        H  0.18105761  0.08422407  0.39040467     0.14300
O537        O  0.11509468  0.56212107  0.00620333    -0.71400
O538        O  0.11336293  0.93236480  0.99111584    -0.72400
O539        O  0.10851657  0.98813948  0.05702199    -0.61000
O540        O  0.11163349  0.00458113  0.44021345    -0.69500
O541        O  0.17817824  0.00911889  0.43982841    -0.69000
O542        O  0.17508580  0.98503800  0.05913231    -0.60300
O543        O  0.17963572  0.93395612  0.98932120    -0.72800
O544        O  0.18140701  0.56221273  0.00745971    -0.71500
Cu545      Cu  0.10956662  0.99630272  0.99833276     1.04600
Cu546      Cu  0.18063267  0.99702977  0.99932992     1.04300
C547        C  0.14851322  0.58245418  0.00908944     0.94800
C548        C  0.14685599  0.91269855  0.98937250     0.93900
C549        C  0.14065338  0.98166254  0.07640191     0.86000
C550        C  0.14420376  0.01207414  0.42186810     0.92300
O551        O  0.43544321  0.99544775  0.18354431    -0.71400
O552        O  0.05966640  0.00158293  0.18360551    -0.72400
O553        O  0.99556722  0.55789643  0.18382020    -0.61000
O554        O  0.50430063  0.93701732  0.18381015    -0.69500
O555        O  0.50114424  0.93588897  0.11665258    -0.69000
O556        O  0.99874033  0.55906439  0.11666863    -0.60300
O557        O  0.05912108  0.99804299  0.11678864    -0.72800
O558        O  0.43591192  0.99544703  0.11666113    -0.71500
Cu559      Cu  0.99748797  0.99867289  0.18529807     1.04600
Cu560      Cu  0.49744395  0.99678417  0.11375462     1.04300
C561        C  0.41616799  0.99843529  0.14995124     0.97200
C562        C  0.07889392  0.99651885  0.15023325     0.93900
C563        C  0.49072436  0.57675255  0.15002894     0.86000
C564        C  0.00915750  0.91818255  0.15002034     0.92300
O565        O  0.99342043  0.68672849  0.06769139    -0.71400
O566        O  0.51160525  0.68621486  0.44572355    -0.72400
O567        O  0.44395504  0.68549386  0.99913493    -0.61000
O568        O  0.06095199  0.68429667  0.01734561    -0.69500
O569        O  0.05908958  0.61496278  0.01545402    -0.69000
O570        O  0.44256138  0.61613171  0.99812331    -0.60300
O571        O  0.00964953  0.61716451  0.44463631    -0.72800
O572        O  0.99216340  0.61775622  0.06658594    -0.71500
Cu573      Cu  0.50261764  0.68818574  0.00692127     1.04600
Cu574      Cu  0.00092190  0.61417332  0.00576681     1.04300
C575        C  0.98978429  0.65202479  0.08655850     0.94800
C576        C  0.01350553  0.65197707  0.42569443     0.93900
C577        C  0.42459083  0.65081064  0.99959335     0.86000
C578        C  0.07794519  0.64895801  0.02182617     0.92300
N579        N  0.98003813  0.65147264  0.12957049    -0.02000
C580        C  0.45799753  0.68190551  0.14757609     0.00600
C581        C  0.42640101  0.66360101  0.16896315    -0.22300
C582        C  0.43566895  0.62236694  0.17299864    -0.22500
C583        C  0.96929321  0.61624126  0.14968807     0.00500
H584        H  0.40542014  0.67971810  0.18847258     0.14300
H585        H  0.42132156  0.60004419  0.19309059     0.14300
N586        N  0.12121968  0.98340004  0.15035225    -0.02000
C587        C  0.13765732  0.96143713  0.18190767     0.00600
C588        C  0.15553951  0.92516304  0.16791514    -0.22300
C589        C  0.15762536  0.92852371  0.12699863    -0.22500
C590        C  0.13804952  0.96475175  0.11732460     0.00500
H591        H  0.17318630  0.90354479  0.18570183     0.14300
H592        H  0.17428912  0.90849287  0.10669703     0.14300
N593        N  0.14916262  0.62746604  0.01697229    -0.02000
C594        C  0.18262703  0.65099265  0.02479067     0.00600
C595        C  0.17442418  0.68112207  0.05379828    -0.22300
C596        C  0.13402699  0.68012728  0.05988801    -0.22500
C597        C  0.11925436  0.64819248  0.03596004     0.00500
H598        H  0.19416147  0.70653857  0.06304756     0.14300
H599        H  0.11679811  0.70365698  0.07563155     0.14300
O600        O  0.00788650  0.87723356  0.06653358    -0.71400
O601        O  0.49043763  0.87789072  0.44455132    -0.72400
O602        O  0.44099199  0.88003397  0.01529820    -0.61000
O603        O  0.05751602  0.87887991  0.99814166    -0.69500
O604        O  0.05613040  0.80951677  0.99913853    -0.69000
O605        O  0.43914445  0.81069856  0.01719078    -0.60300
O606        O  0.98846518  0.80884219  0.44563753    -0.72800
O607        O  0.00665592  0.80825888  0.06762523    -0.71500
Cu608      Cu  0.49915549  0.88083609  0.00569414     1.04600
Cu609      Cu  0.99747147  0.80682163  0.00684384     1.04300
C610        C  0.01026131  0.84295530  0.08650620     0.94800
C611        C  0.98658672  0.84308218  0.42559976     0.93900
C612        C  0.42214919  0.84603251  0.02166130     0.86000
C613        C  0.07548883  0.84420151  0.99963364     0.92300
N614        N  0.01995742  0.84348842  0.12954231    -0.02000
C615        C  0.04203534  0.81308308  0.14757995     0.00600
C616        C  0.07360965  0.83142733  0.16899873    -0.22300
C617        C  0.06426893  0.87263887  0.17304642    -0.22500
C618        C  0.03063741  0.87872070  0.14969490     0.00500
H619        H  0.09461721  0.81533491  0.18852615     0.14300
H620        H  0.07857793  0.89497176  0.19316465     0.14300
N621        N  0.14816688  0.86695547  0.99222037    -0.02000
C622        C  0.18182405  0.84608283  0.00402105     0.00600
C623        C  0.17288213  0.81502618  0.03197533    -0.22300
C624        C  0.13246089  0.81200667  0.03346624    -0.22500
C625        C  0.11817519  0.84282005  0.00829832     0.00500
H626        H  0.19337404  0.79201955  0.04405989     0.14300
H627        H  0.11520786  0.78820286  0.04930906     0.14300
N628        N  0.97718351  0.84225986  0.38239860    -0.02000
C629        C  0.95552610  0.81041072  0.36554140     0.00600
C630        C  0.42301141  0.82669738  0.34447139    -0.22300
C631        C  0.43151601  0.86811100  0.33885080    -0.22500
C632        C  0.96563444  0.87633484  0.36105972     0.00500
H633        H  0.40209595  0.80909560  0.32575712     0.14300
H634        H  0.41668990  0.88896780  0.31795390     0.14300
N635        N  0.37596541  0.98174911  0.34730962    -0.02000
C636        C  0.35930695  0.96041722  0.31525767     0.00600
C637        C  0.34071043  0.92389268  0.32864851    -0.22300
C638        C  0.33810810  0.92684023  0.36960559    -0.22500
C639        C  0.35826353  0.96296087  0.37980382     0.00500
H640        H  0.32274215  0.90257412  0.31044181     0.14300
H641        H  0.32074570  0.90667604  0.38950755     0.14300
N642        N  0.35092457  0.86750686  0.01681031    -0.02000
C643        C  0.31747706  0.84397584  0.02465821     0.00600
C644        C  0.32572556  0.81385259  0.05367527    -0.22300
C645        C  0.36613014  0.81485307  0.05974564    -0.22500
C646        C  0.38086016  0.84678463  0.03579533     0.00500
H647        H  0.30600349  0.78843853  0.06294802     0.14300
H648        H  0.38338650  0.79133160  0.07549645     0.14300
C649        C  0.00004384  0.74749457  0.27917158     0.04600
C650        C  0.02104517  0.71733646  0.30079724    -0.11500
C651        C  0.02243182  0.71786799  0.34384047     0.02100
C652        C  0.00002210  0.74752675  0.36505056    -0.10000
C653        C  0.97762707  0.77717496  0.34377598     0.04600
C654        C  0.97903265  0.77766910  0.30073352    -0.09500
H655        H  0.03642326  0.69341786  0.28367224     0.10200
H656        H  0.00001603  0.74753646  0.39779394     0.07700
H657        H  0.96367016  0.80157684  0.28355659     0.07600
C658        C  0.50003672  0.74748686  0.23403333     0.04600
C659        C  0.48108660  0.71548438  0.21242476    -0.11500
C660        C  0.47935796  0.71609176  0.16938556     0.02100
C661        C  0.50002542  0.74748786  0.14816197    -0.10000
C662        C  0.52070159  0.77888254  0.16939239     0.04600
C663        C  0.51898557  0.77948722  0.21243146    -0.09500
H664        H  0.46725854  0.69026523  0.22954731     0.10200
H665        H  0.50001282  0.74749491  0.11545395     0.07700
H666        H  0.53280962  0.80470996  0.22956071     0.07600
C667        C  0.25188020  0.77145209  0.96324802     0.04600
C668        C  0.21770883  0.79725196  0.95975067    -0.11500
C669        C  0.21686619  0.83761670  0.47807155     0.02100
C670        C  0.25252611  0.85611545  0.49145744    -0.10000
C671        C  0.28734910  0.83257147  0.49342263     0.04600
C672        C  0.28733526  0.79102298  0.97788041    -0.09500
H673        H  0.18933483  0.78330428  0.95060480     0.10200
H674        H  0.25113810  0.88508466  0.50850223     0.07700
H675        H  0.31373852  0.77233884  0.98326532     0.07600
C676        C  0.24808741  0.72350475  0.96325990     0.04600
C677        C  0.21267247  0.70394091  0.97796334    -0.11500
C678        C  0.21268997  0.66243990  0.49352601     0.02100
C679        C  0.24749958  0.63887847  0.49153235    -0.10000
C680        C  0.28313868  0.65735283  0.47808471     0.04600
C681        C  0.28224505  0.69769937  0.95970489    -0.09500
H682        H  0.18628514  0.72262732  0.98338301     0.10200
H683        H  0.24891396  0.60991448  0.50859201     0.07700
H684        H  0.31059369  0.71164605  0.95050629     0.07600
C685        C  0.27117586  0.99510464  0.74939611     0.04600
C686        C  0.29283200  0.00812735  0.71495260    -0.11500
C687        C  0.33563756  0.01068552  0.71480134     0.02100
C688        C  0.35728133  0.99683907  0.74840472    -0.10000
C689        C  0.33685132  0.98193152  0.78247832     0.04600
C690        C  0.29389148  0.98279561  0.78340333    -0.09500
H691        H  0.27623423  0.01841551  0.68855760     0.10200
H692        H  0.38981206  0.99755938  0.74807645     0.07700
H693        H  0.27811312  0.97180213  0.81014566     0.07600
C694        C  0.22534415  0.99483674  0.74966402     0.04600
C695        C  0.20285058  0.98283101  0.71527843    -0.11500
C696        C  0.15992359  0.98216704  0.71546533     0.02100
C697        C  0.13926239  0.99674694  0.74930509    -0.10000
C698        C  0.16066711  0.01021149  0.78331768     0.04600
C699        C  0.20345943  0.00751443  0.78394070    -0.09500
H700        H  0.21876392  0.97211629  0.68863967     0.10200
H701        H  0.10673451  0.99757718  0.74921405     0.07700
H702        H  0.21985076  0.01768896  0.81062809     0.07600
O703        O  0.31866389  0.93277544  0.50720507    -0.71400
O704        O  0.32042818  0.56102058  0.48908950    -0.72400
O705        O  0.32160276  0.98325988  0.93769447    -0.61000
O706        O  0.32147482  0.00791667  0.55685241    -0.69500
O707        O  0.38808731  0.00569793  0.55651867    -0.69000
O708        O  0.38816143  0.98731954  0.93955601    -0.60300
O709        O  0.38669790  0.56262320  0.49106391    -0.72800
O710        O  0.38497720  0.93290155  0.50610025    -0.71500
Cu711      Cu  0.31773164  0.99566477  0.49702783     1.04600
Cu712      Cu  0.38879886  0.99661314  0.49782474     1.04300
C713        C  0.35156458  0.91254960  0.50891415     0.94800
C714        C  0.35320362  0.58228608  0.48925015     0.93900
C715        C  0.35589387  0.97991007  0.92050406     0.86000
C716        C  0.35538763  0.01184160  0.57504166     0.92300
N717        N  0.37375473  0.01090833  0.64944500    -0.02000
C718        C  0.35643443  0.03226687  0.68083052     0.00600
C719        C  0.33688839  0.06747574  0.66652631    -0.22300
C720        C  0.33524177  0.06390085  0.62557401    -0.22500
C721        C  0.35658981  0.02871729  0.61611130     0.00500
H722        H  0.31823996  0.08831573  0.68411432     0.14300
H723        H  0.31791502  0.08311338  0.60506931     0.14300
N724        N  0.35187890  0.62802645  0.49214928    -0.02000
C725        C  0.31822753  0.64886820  0.50398337     0.00600
C726        C  0.32719776  0.67990544  0.53194971    -0.22300
C727        C  0.36761868  0.68294721  0.53342300    -0.22500
C728        C  0.38188378  0.65216536  0.50823109     0.00500
H729        H  0.30671207  0.70288589  0.54406263     0.14300
H730        H  0.38488309  0.70673896  0.54928305     0.14300
O731        O  0.43786385  0.99552797  0.88242912    -0.71400
O732        O  0.06133726  0.99800097  0.88374986    -0.72400
O733        O  0.00293154  0.55936080  0.88894883    -0.61000
O734        O  0.99734011  0.93560128  0.88884778    -0.69500
O735        O  0.99112111  0.93283279  0.82191998    -0.69000
O736        O  0.00910259  0.56226840  0.82202650    -0.60300
O737        O  0.06163426  0.99076922  0.81728004    -0.72800
O738        O  0.43861182  0.99901091  0.81567347    -0.71500
Cu739      Cu  0.99956421  0.99679006  0.88729523     1.04600
Cu740      Cu  0.50017671  0.99483972  0.81586993     1.04300
C741        C  0.41867098  0.99414618  0.84853740     0.94800
C742        C  0.08101277  0.99767984  0.85016513     0.93900
C743        C  0.01263110  0.57915196  0.85716144     0.86000
C744        C  0.98760690  0.91587982  0.85702667     0.92300
N745        N  0.02294430  0.65280226  0.88251678    -0.02000
C746        C  0.04457451  0.68467170  0.86567887     0.00600
C747        C  0.07712609  0.66843308  0.84469514    -0.22300
C748        C  0.06870421  0.62699685  0.83911231    -0.22500
C749        C  0.03457799  0.61872920  0.86125183     0.00500
H750        H  0.09802733  0.68605645  0.82600196     0.14300
H751        H  0.08358322  0.60615050  0.81826705     0.14300
N752        N  0.12353566  0.01061299  0.84882104    -0.02000
C753        C  0.13961361  0.03200894  0.81663573     0.00600
C754        C  0.15929790  0.06798228  0.82986955    -0.22300
C755        C  0.16299082  0.06447479  0.87070917    -0.22500
C756        C  0.14231472  0.02872028  0.88108398     0.00500
H757        H  0.17716183  0.08912712  0.81138492     0.14300
H758        H  0.18106510  0.08419922  0.89039639     0.14300
O759        O  0.11507923  0.56215273  0.50620829    -0.71400
O760        O  0.11336906  0.93236790  0.49110804    -0.72400
O761        O  0.10852533  0.98814241  0.55701509    -0.61000
O762        O  0.11163104  0.00457738  0.94022000    -0.69500
O763        O  0.17817617  0.00910754  0.93983853    -0.69000
O764        O  0.17509442  0.98503573  0.55911980    -0.60300
O765        O  0.17964135  0.93396037  0.48930349    -0.72800
O766        O  0.18139104  0.56224921  0.50746489    -0.71500
Cu767      Cu  0.10957261  0.99630498  0.49832587     1.04600
Cu768      Cu  0.18063853  0.99703257  0.49931803     1.04300
C769        C  0.14849605  0.58248824  0.50909526     0.94800
C770        C  0.14686203  0.91270224  0.48936016     0.93900
C771        C  0.14066311  0.98166298  0.57639237     0.86000
C772        C  0.14420329  0.01206189  0.92187497     0.92300
O773        O  0.43546156  0.99544963  0.68354912    -0.71400
O774        O  0.05968142  0.00158451  0.68360125    -0.72400
O775        O  0.99554685  0.55789994  0.68382221    -0.61000
O776        O  0.50431855  0.93701716  0.68381777    -0.69500
O777        O  0.50115116  0.93588150  0.61666121    -0.69000
O778        O  0.99872222  0.55906703  0.61667074    -0.60300
O779        O  0.05913019  0.99803556  0.61678492    -0.72800
O780        O  0.43592369  0.99544330  0.61666576    -0.71500
Cu781      Cu  0.99750216  0.99867768  0.68529852     1.04600
Cu782      Cu  0.49745611  0.99677574  0.61375487     1.04300
C783        C  0.41618285  0.99843431  0.64995749     0.97200
C784        C  0.07890589  0.99651349  0.65022807     0.93900
C785        C  0.49071161  0.57675035  0.65003023     0.86000
C786        C  0.00916319  0.91818347  0.65002909     0.92300
O787        O  0.99338626  0.68672743  0.56768391    -0.71400
O788        O  0.51163675  0.68620953  0.94572691    -0.72400
O789        O  0.44392450  0.68548135  0.49913375    -0.61000
O790        O  0.06091725  0.68431407  0.51734035    -0.69500
O791        O  0.05907367  0.61498012  0.51544890    -0.69000
O792        O  0.44254613  0.61611857  0.49812209    -0.60300
O793        O  0.00966533  0.61716448  0.94464183    -0.72800
O794        O  0.99215013  0.61775472  0.56658277    -0.71500
Cu795      Cu  0.50258597  0.68818627  0.50691809     1.04600
Cu796      Cu  0.00090749  0.61417216  0.50576254     1.04300
C797        C  0.98976189  0.65202385  0.58655336     0.94800
C798        C  0.01352899  0.65197647  0.92570071     0.93900
C799        C  0.42456868  0.65079344  0.49959712     0.86000
C800        C  0.07791960  0.64898064  0.52182225     0.92300
N801        N  0.98001939  0.65147263  0.62956617    -0.02000
C802        C  0.45798745  0.68190277  0.64757650     0.00600
C803        C  0.42639262  0.66360125  0.66896866    -0.22300
C804        C  0.43565884  0.62236655  0.67300452    -0.22500
C805        C  0.96927269  0.61624361  0.64968642     0.00500
H806        H  0.40541694  0.67972074  0.68848222     0.14300
H807        H  0.42131494  0.60004635  0.69310137     0.14300
N808        N  0.12123057  0.98338923  0.65034517    -0.02000
C809        C  0.13766464  0.96141557  0.68189608     0.00600
C810        C  0.15554367  0.92514326  0.66789495    -0.22300
C811        C  0.15763309  0.92851543  0.62697968    -0.22500
C812        C  0.13806128  0.96474799  0.61731365     0.00500
H813        H  0.17318650  0.90351750  0.68567690     0.14300
H814        H  0.17429482  0.90848746  0.60667376     0.14300
N815        N  0.14914152  0.62749976  0.51698029    -0.02000
C816        C  0.18260162  0.65103363  0.52479655     0.00600
C817        C  0.17439046  0.68117267  0.55379234    -0.22300
C818        C  0.13399300  0.68017249  0.55987845    -0.22500
C819        C  0.11922802  0.64822768  0.53595832     0.00500
H820        H  0.19412344  0.70659403  0.56303782     0.14300
H821        H  0.11675869  0.70370341  0.57561434     0.14300
O822        O  0.00789670  0.87724154  0.56654061    -0.71400
O823        O  0.49042889  0.87786349  0.94454553    -0.72400
O824        O  0.44100078  0.88006144  0.51530439    -0.61000
O825        O  0.05752618  0.87888708  0.49814772    -0.69500
O826        O  0.05613305  0.80952430  0.49914195    -0.69000
O827        O  0.43914474  0.81072587  0.51719312    -0.60300
O828        O  0.98846270  0.80881883  0.94563435    -0.72800
O829        O  0.00665551  0.80826716  0.56762761    -0.71500
Cu830      Cu  0.49916464  0.88085359  0.50570080     1.04600
Cu831      Cu  0.99747236  0.80683886  0.50684652     1.04300
C832        C  0.01026535  0.84296128  0.58651123     0.94800
C833        C  0.98658018  0.84305779  0.92559528     0.93900
C834        C  0.42215394  0.84606212  0.52166608     0.86000
C835        C  0.07549566  0.84420676  0.49963514     0.92300
N836        N  0.01995912  0.84348888  0.62954814    -0.02000
C837        C  0.04203688  0.81308123  0.64758301     0.00600
C838        C  0.07361113  0.83142361  0.66900346    -0.22300
C839        C  0.06426944  0.87263426  0.67305683    -0.22500
C840        C  0.03063820  0.87871872  0.64970562     0.00500
H841        H  0.09462002  0.81532922  0.68852803     0.14300
H842        H  0.07857945  0.89496529  0.69317624     0.14300
N843        N  0.14817432  0.86695943  0.49221053    -0.02000
C844        C  0.18183345  0.84608864  0.50400857     0.00600
C845        C  0.17289456  0.81502912  0.53196076    -0.22300
C846        C  0.13247346  0.81200667  0.53345361    -0.22500
C847        C  0.11818436  0.84282133  0.50828922     0.00500
H848        H  0.19338891  0.79202452  0.54404449     0.14300
H849        H  0.11522277  0.78820243  0.54929776     0.14300
N850        N  0.97717885  0.84223349  0.88239377    -0.02000
C851        C  0.95552059  0.81038538  0.86553590     0.00600
C852        C  0.42301480  0.82666581  0.84446238    -0.22300
C853        C  0.43152655  0.86807707  0.83883484    -0.22500
C854        C  0.96563871  0.87630789  0.86104878     0.00500
H855        H  0.40209917  0.80906394  0.82574801     0.14300
H856        H  0.41670621  0.88893241  0.81793254     0.14300
N857        N  0.37597766  0.98170935  0.84730797    -0.02000
C858        C  0.35932265  0.96037323  0.81525700     0.00600
C859        C  0.34073213  0.92384588  0.82864876    -0.22300
C860        C  0.33812829  0.92679524  0.86960556    -0.22500
C861        C  0.35827730  0.96292023  0.87980199     0.00500
H862        H  0.32276766  0.90252353  0.81044268     0.14300
H863        H  0.32076802  0.90662972  0.88950807     0.14300
N864        N  0.35092977  0.86753631  0.51681338    -0.02000
C865        C  0.31748305  0.84400518  0.52466572     0.00600
C866        C  0.32573241  0.81388985  0.55369032    -0.22300
C867        C  0.36613688  0.81489383  0.55976120    -0.22500
C868        C  0.38086591  0.84681956  0.53580318     0.00500
H869        H  0.30601178  0.78847649  0.56296791     0.14300
H870        H  0.38339412  0.79137636  0.57551678     0.14300
C871        C  0.00005469  0.74747624  0.77917006     0.04600
C872        C  0.02106739  0.71732786  0.80079710    -0.11500
C873        C  0.02244957  0.71785988  0.84384063     0.02100
C874        C  0.00002788  0.74751045  0.86504837    -0.10000
C875        C  0.97762351  0.77714958  0.84377223     0.04600
C876        C  0.97902938  0.77764114  0.80072985    -0.09500
H877        H  0.03645529  0.69341568  0.78367317     0.10200
H878        H  0.00002019  0.74752107  0.89779203     0.07700
H879        H  0.96365956  0.80154189  0.78355056     0.07600
C880        C  0.50005261  0.74746604  0.73403195     0.04600
C881        C  0.48109675  0.71546806  0.71242323    -0.11500
C882        C  0.47935673  0.71608363  0.66938481     0.02100
C883        C  0.50002103  0.74748212  0.64816064    -0.10000
C884        C  0.52070449  0.77887204  0.66939116     0.04600
C885        C  0.51899765  0.77946940  0.71243090    -0.09500
H886        H  0.46727080  0.69024715  0.72954541     0.10200
H887        H  0.50000014  0.74749465  0.61545260     0.07700
H888        H  0.53282457  0.80468915  0.72956130     0.07600
C889        C  0.75223880  0.27139882  0.46798330     0.04600
C890        C  0.71866984  0.29767811  0.46309284    -0.11500
C891        C  0.71837926  0.33869337  0.97996317     0.02100
C892        C  0.75414591  0.35701791  0.99330610    -0.10000
C893        C  0.78849715  0.33291226  0.99676324     0.04600
C894        C  0.78774470  0.29059541  0.48305260    -0.09500
H895        H  0.69022456  0.28388662  0.45392886     0.10200
H896        H  0.75309633  0.38685957  0.00888740     0.07700
H897        H  0.81361749  0.27140482  0.48938959     0.07600
C898        C  0.74765341  0.22357413  0.46800199     0.04600
C899        C  0.71220244  0.20438287  0.48317259    -0.11500
C900        C  0.71150779  0.16207687  0.99688305     0.02100
C901        C  0.74584443  0.13795860  0.99339226    -0.10000
C902        C  0.78158467  0.15626429  0.97998229     0.04600
C903        C  0.78120287  0.19729186  0.46303220    -0.09500
H904        H  0.68634930  0.22357274  0.48955689     0.10200
H905        H  0.74692305  0.10812094  0.00898711     0.07700
H906        H  0.80961297  0.21108303  0.45378525     0.07600
C907        C  0.77475199  0.50020517  0.24964343     0.04600
C908        C  0.79716939  0.51218685  0.21522211    -0.11500
C909        C  0.84009670  0.51284331  0.21535667     0.02100
C910        C  0.86083335  0.49828321  0.24918198    -0.10000
C911        C  0.83950584  0.48483593  0.28322613     0.04600
C912        C  0.79671474  0.48753793  0.28390283    -0.09500
H913        H  0.78119681  0.52288788  0.18859380     0.10200
H914        H  0.89336114  0.49745282  0.24905941     0.07700
H915        H  0.78038672  0.47736934  0.31061620     0.07600
C916        C  0.72891873  0.49995366  0.24942539     0.04600
C917        C  0.70718292  0.48693541  0.21500964    -0.11500
C918        C  0.66437637  0.48439643  0.21490366     0.02100
C919        C  0.64280925  0.49827027  0.24851984    -0.10000
C920        C  0.66331921  0.51316861  0.28257043     0.04600
C921        C  0.70628096  0.51227800  0.28345106    -0.09500
H922        H  0.72371856  0.47662621  0.18860386     0.10200
H923        H  0.61027747  0.49757143  0.24821696     0.07700
H924        H  0.72212310  0.52325902  0.31017439     0.07600
O925        O  0.82028620  0.43496327  0.00884713    -0.71400
O926        O  0.81890012  0.05866499  0.98677800    -0.72400
O927        O  0.82198786  0.48588275  0.43958776    -0.61000
O928        O  0.82487712  0.50992702  0.05888110    -0.69500
O929        O  0.89144810  0.50682718  0.05693853    -0.69000
O930        O  0.88853409  0.49044450  0.44013801    -0.60300
O931        O  0.88513985  0.06040015  0.98975307    -0.72800
O932        O  0.88652772  0.43483907  0.00568184    -0.71500
Cu933      Cu  0.81943368  0.49796733  0.99906905     1.04600
Cu934      Cu  0.89050126  0.49870471  0.99825570     1.04300
C935        C  0.85312142  0.41455583  0.00922350     0.94800
C936        C  0.85165424  0.07998838  0.98729940     0.93900
C937        C  0.85598983  0.48293802  0.42171675     0.86000
C938        C  0.85928505  0.51328802  0.07623800     0.92300
N939        N  0.87869720  0.51156736  0.15022158    -0.02000
C940        C  0.86228061  0.53356432  0.18174241     0.00600
C941        C  0.84436198  0.56980903  0.16769759    -0.22300
C942        C  0.84224334  0.56640267  0.12678719    -0.22500
C943        C  0.86183364  0.53017817  0.11716542     0.00500
H944        H  0.82672940  0.59144501  0.18545246     0.14300
H945        H  0.82557119  0.58641557  0.10645152     0.14300
N946        N  0.85018720  0.12574159  0.98991405    -0.02000
C947        C  0.81712695  0.14573150  0.00444646     0.00600
C948        C  0.82753380  0.17579988  0.03293480    -0.22300
C949        C  0.86787816  0.17991421  0.03127477    -0.22500
C950        C  0.88081905  0.15027475  0.00413572     0.00500
H951        H  0.80761279  0.19810051  0.04706801     0.14300
H952        H  0.88583045  0.20349638  0.04665557     0.14300
O953        O  0.93891773  0.49694662  0.38371601    -0.71400
O954        O  0.56238919  0.49946053  0.38245473    -0.72400
O955        O  0.50174095  0.05790393  0.38544553    -0.61000
O956        O  0.49853340  0.43709869  0.38535741    -0.69500
O957        O  0.49106805  0.43797148  0.31856754    -0.69000
O958        O  0.50915768  0.05715811  0.31865604    -0.60300
O959        O  0.56161602  0.49612138  0.31569622    -0.72800
O960        O  0.93859214  0.50432379  0.31725525    -0.71500
Cu961      Cu  0.50069780  0.49817596  0.38729339     1.04600
Cu962      Cu  0.00004948  0.50026579  0.31587136     1.04300
C963        C  0.91922895  0.49733952  0.35011581     0.94800
C964        C  0.58156901  0.50092490  0.34858154     0.93900
C965        C  0.51185407  0.07604020  0.35289159     0.86000
C966        C  0.48838402  0.41902780  0.35277531     0.92300
N967        N  0.52125074  0.15062560  0.37651773    -0.02000
C968        C  0.54238913  0.18256363  0.35906337     0.00600
C969        C  0.57460552  0.16630630  0.33753574    -0.22300
C970        C  0.56652000  0.12472543  0.33254232    -0.22500
C971        C  0.53280561  0.11639363  0.35529971     0.00500
H972        H  0.59516072  0.18389764  0.31843389     0.14300
H973        H  0.58161691  0.10365282  0.31204092     0.14300
N974        N  0.62425656  0.51338902  0.34740938    -0.02000
C975        C  0.64093366  0.53472620  0.31538134     0.00600
C976        C  0.65958838  0.57120942  0.32880799    -0.22300
C977        C  0.66217395  0.56823953  0.36976853    -0.22500
C978        C  0.64196476  0.53214494  0.37993560     0.00500
H979        H  0.67757927  0.59251911  0.31062859     0.14300
H980        H  0.67954838  0.58837691  0.38969921     0.14300
O981        O  0.61351739  0.06015498  0.00578114    -0.71400
O982        O  0.61489300  0.43460745  0.98979440    -0.72400
O983        O  0.61188097  0.48929425  0.05658971    -0.61000
O984        O  0.61198516  0.50777079  0.43963303    -0.69500
O985        O  0.67854527  0.51178607  0.43793289    -0.69000
O986        O  0.67849308  0.48704439  0.05707379    -0.60300
O987        O  0.68113791  0.43631651  0.98698732    -0.72800
O988        O  0.67975538  0.06002442  0.00910501    -0.71500
Cu989      Cu  0.61125883  0.49842638  0.99789035     1.04600
Cu990      Cu  0.68232724  0.49933925  0.99726007     1.04300
C991        C  0.64692013  0.08043400  0.00939714     0.94800
C992        C  0.64837403  0.41500827  0.98740257     0.93900
C993        C  0.64455812  0.48312631  0.07518624     0.86000
C994        C  0.64428083  0.51516145  0.42065616     0.92300
O995        O  0.94023990  0.49330438  0.18353136    -0.71400
O996        O  0.56446112  0.49951642  0.18359477    -0.72400
O997        O  0.49054582  0.06025355  0.18050885    -0.61000
O998        O  0.00939868  0.43466595  0.18047207    -0.69500
O999        O  0.00636586  0.43706390  0.11329809    -0.69000
O1000       O  0.49355874  0.05789450  0.11333712    -0.60300
O1001       O  0.56399463  0.49953699  0.11670805    -0.72800
O1002       O  0.94078692  0.49690265  0.11672001    -0.71500
Cu1003     Cu  0.50241798  0.49624227  0.18528568     1.04600
Cu1004     Cu  0.00246086  0.49817620  0.11374413     1.04300
C1005       C  0.92101385  0.49841009  0.15014211     0.97200
C1006       C  0.58373890  0.49655366  0.15002249     0.93900
C1007       C  0.98558136  0.07729927  0.14582300     0.86000
C1008       C  0.51436580  0.41764248  0.14578450     0.92300
O1009       O  0.49133866  0.18573090  0.06147352    -0.71400
O1010       O  0.01044546  0.18451822  0.43965587    -0.72400
O1011       O  0.94235022  0.18387901  0.99266449    -0.61000
O1012       O  0.55941281  0.18267536  0.01206201    -0.69500
O1013       O  0.55718936  0.11332805  0.01107745    -0.69000
O1014       O  0.94105305  0.11449770  0.99183263    -0.60300
O1015       O  0.50875235  0.11550888  0.43923880    -0.72800
O1016       O  0.48954823  0.11669882  0.06124516    -0.71500
Cu1017     Cu  0.00105737  0.18667771  0.00083839     1.04600
Cu1018     Cu  0.49922012  0.11266071  0.00036967     1.04300
C1019       C  0.48719041  0.15132178  0.08073180     0.94800
C1020       C  0.51234025  0.15013773  0.41988976     0.93900
C1021       C  0.92306900  0.14913234  0.99355755     0.86000
C1022       C  0.57603067  0.14728451  0.01765113     0.92300
N1023       N  0.47695917  0.15158972  0.12362303    -0.02000
C1024       C  0.95594147  0.18310812  0.14115264     0.00600
C1025       C  0.92338715  0.16628776  0.16225284    -0.22300
C1026       C  0.93072118  0.12458624  0.16633346    -0.22500
C1027       C  0.46442761  0.11692306  0.14355778     0.00500
H1028       H  0.90295429  0.18340790  0.18153831     0.14300
H1029       H  0.91528337  0.10301631  0.18640197     0.14300
N1030       N  0.62617443  0.48411069  0.14955765    -0.02000
C1031       C  0.64350099  0.46277989  0.18098252     0.00600
C1032       C  0.66299832  0.42752878  0.16673843    -0.22300
C1033       C  0.66462481  0.43105334  0.12578119    -0.22500
C1034       C  0.64330530  0.46624823  0.11625865     0.00500
H1035       H  0.68164690  0.40669852  0.18436421     0.14300
H1036       H  0.68193660  0.41181079  0.10531513     0.14300
N1037       N  0.64744896  0.12562798  0.01648951    -0.02000
C1038       C  0.68054872  0.14881201  0.02675125     0.00600
C1039       C  0.67082791  0.17790697  0.05626864    -0.22300
C1040       C  0.63009254  0.17732136  0.05961563    -0.22500
C1041       C  0.61661246  0.14631479  0.03389704     0.00500
H1042       H  0.69011576  0.20286717  0.06743778     0.14300
H1043       H  0.61209488  0.20050991  0.07494421     0.14300
O1044       O  0.51047004  0.37827503  0.06117642    -0.71400
O1045       O  0.99126404  0.37953554  0.43915345    -0.72400
O1046       O  0.94284042  0.38165575  0.01093189    -0.61000
O1047       O  0.55896692  0.38049857  0.99180952    -0.69500
O1048       O  0.55767400  0.31111645  0.99266767    -0.69000
O1049       O  0.94061189  0.31230768  0.01189659    -0.60300
O1050       O  0.48962477  0.31052633  0.43955302    -0.72800
O1051       O  0.50866728  0.30924172  0.06140742    -0.71500
Cu1052     Cu  0.00080270  0.38233111  0.00028451     1.04600
Cu1053     Cu  0.49896667  0.30831245  0.00075326     1.04300
C1054       C  0.51281064  0.34364646  0.08067061     0.94800
C1055       C  0.48771465  0.34491645  0.41979094     0.93900
C1056       C  0.92400219  0.34769694  0.01748733     0.86000
C1057       C  0.57695168  0.34586480  0.99357337     0.92300
N1058       N  0.52300804  0.34336809  0.12358301    -0.02000
C1059       C  0.54401640  0.31184402  0.14115206     0.00600
C1060       C  0.57657856  0.32866126  0.16227363    -0.22300
C1061       C  0.56924833  0.37036349  0.16633461    -0.22500
C1062       C  0.53554015  0.37803368  0.14352399     0.00500
H1063       H  0.59701041  0.31154010  0.18158696     0.14300
H1064       H  0.58468370  0.39192936  0.18642022     0.14300
N1065       N  0.64982193  0.36925145  0.98996145    -0.02000
C1066       C  0.68289283  0.34922954  0.00446401     0.00600
C1067       C  0.67251830  0.31915483  0.03295461    -0.22300
C1068       C  0.63216805  0.31506922  0.03132019    -0.22500
C1069       C  0.61920204  0.34472835  0.00419111     0.00500
H1070       H  0.69245011  0.29683048  0.04706574     0.14300
H1071       H  0.61422838  0.29148161  0.04669437     0.14300
N1072       N  0.47882637  0.34444380  0.37640246    -0.02000
C1073       C  0.45763171  0.31254851  0.35892737     0.00600
C1074       C  0.92546910  0.32888306  0.33731948    -0.22300
C1075       C  0.93367439  0.37043574  0.33229363    -0.22500
C1076       C  0.46738526  0.37869416  0.35511955     0.00500
H1077       H  0.90488035  0.31133605  0.31819802     0.14300
H1078       H  0.91864629  0.39153789  0.31174648     0.14300
N1079       N  0.87670553  0.48441249  0.34871732    -0.02000
C1080       C  0.86064057  0.46302650  0.31650939     0.00600
C1081       C  0.84101145  0.42701102  0.32970566    -0.22300
C1082       C  0.83731740  0.43048475  0.37054270    -0.22500
C1083       C  0.85794642  0.46626267  0.38094827     0.00500
H1084       H  0.82316149  0.40586456  0.31119512     0.14300
H1085       H  0.81925555  0.41073373  0.39020168     0.14300
N1086       N  0.85258759  0.36936031  0.01632819    -0.02000
C1087       C  0.81949826  0.34618527  0.02661254     0.00600
C1088       C  0.82925324  0.31709402  0.05614089    -0.22300
C1089       C  0.86999277  0.31766404  0.05946782    -0.22500
C1090       C  0.88344103  0.34866303  0.03373108     0.00500
H1091       H  0.80997450  0.29214214  0.06732895     0.14300
H1092       H  0.88800719  0.29447404  0.07480080     0.14300
C1093       C  0.49999131  0.24749119  0.27282746     0.04600
C1094       C  0.51825041  0.21545408  0.29451489    -0.11500
C1095       C  0.52022926  0.21614604  0.33756182     0.02100
C1096       C  0.49997931  0.24753137  0.35885343    -0.10000
C1097       C  0.47973797  0.27890052  0.33749723     0.04600
C1098       C  0.48172389  0.27954501  0.29445196    -0.09500
H1099       H  0.53171572  0.19026686  0.27743144     0.10200
H1100       H  0.49998141  0.24754648  0.39161781     0.07700
H1101       H  0.46827537  0.30472001  0.27731586     0.07600
C1102       C  0.99998503  0.24747845  0.22758564     0.04600
C1103       C  0.97998703  0.21614429  0.20592330    -0.11500
C1104       C  0.97835210  0.21671726  0.16287138     0.02100
C1105       C  0.99996156  0.24748360  0.14162245    -0.10000
C1106       C  0.02158976  0.27824381  0.16287472     0.04600
C1107       C  0.01997693  0.27881324  0.20592718    -0.09500
H1108       H  0.96527479  0.19143957  0.22300822     0.10200
H1109       H  0.99994944  0.24748825  0.10889464     0.07700
H1110       H  0.03469693  0.30351775  0.22301510     0.07600
C1111       C  0.75226906  0.27139502  0.96800548     0.04600
C1112       C  0.71870252  0.29767098  0.96308750    -0.11500
C1113       C  0.71836359  0.33870405  0.47996316     0.02100
C1114       C  0.75413877  0.35701854  0.49329499    -0.10000
C1115       C  0.78848454  0.33290366  0.49674062     0.04600
C1116       C  0.78776657  0.29059840  0.98308832    -0.09500
H1117       H  0.69026454  0.28387557  0.95390660     0.10200
H1118       H  0.75310054  0.38685872  0.50887959     0.07700
H1119       H  0.81363864  0.27141171  0.98944055     0.07600
C1120       C  0.74768107  0.22357051  0.96803332     0.04600
C1121       C  0.71221817  0.20438456  0.98318407    -0.11500
C1122       C  0.71150806  0.16207644  0.49687450     0.02100
C1123       C  0.74584985  0.13796653  0.49337372    -0.10000
C1124       C  0.78157959  0.15627944  0.47994394     0.04600
C1125       C  0.78123050  0.19728408  0.96308676    -0.09500
H1126       H  0.68636530  0.22357916  0.98955625     0.10200
H1127       H  0.74694287  0.10813315  0.50897531     0.07700
H1128       H  0.80964897  0.21107031  0.95386071     0.07600
C1129       C  0.77475533  0.50019707  0.74964084     0.04600
C1130       C  0.79717044  0.51218621  0.71522153    -0.11500
C1131       C  0.84009687  0.51285220  0.71535738     0.02100
C1132       C  0.86083684  0.49829715  0.74918293    -0.10000
C1133       C  0.83951211  0.48484062  0.78322535     0.04600
C1134       C  0.79671982  0.48753047  0.78389994    -0.09500
H1135       H  0.78119604  0.52288481  0.68859293     0.10200
H1136       H  0.89336498  0.49747554  0.74906091     0.07700
H1137       H  0.78039312  0.47735616  0.81061154     0.07600
C1138       C  0.72892262  0.49994366  0.74942272     0.04600
C1139       C  0.70718483  0.48693131  0.71500561    -0.11500
C1140       C  0.66437772  0.48439738  0.71490078     0.02100
C1141       C  0.64281352  0.49827059  0.74851883    -0.10000
C1142       C  0.66332647  0.51316179  0.78257022     0.04600
C1143       C  0.70628741  0.51226560  0.78344988    -0.09500
H1144       H  0.72371856  0.47662385  0.68859837     0.10200
H1145       H  0.61028150  0.49757610  0.74821703     0.07700
H1146       H  0.72213148  0.52324154  0.81017427     0.07600
O1147       O  0.82027553  0.43493677  0.50884506    -0.71400
O1148       O  0.81890345  0.05870090  0.48678654    -0.72400
O1149       O  0.82200111  0.48590627  0.93958707    -0.61000
O1150       O  0.82486142  0.50989960  0.55888212    -0.69500
O1151       O  0.89143259  0.50680200  0.55693976    -0.69000
O1152       O  0.88854721  0.49046807  0.94013574    -0.60300
O1153       O  0.88514325  0.06043421  0.48975107    -0.72800
O1154       O  0.88651676  0.43481519  0.50568182    -0.71500
Cu1155     Cu  0.81941895  0.49794100  0.49907008     1.04600
Cu1156     Cu  0.89048672  0.49868050  0.49825754     1.04300
C1157       C  0.85311139  0.41453047  0.50922132     0.94800
C1158       C  0.85165823  0.08002381  0.48729842     0.93900
C1159       C  0.85600254  0.48296080  0.92171527     0.86000
C1160       C  0.85926936  0.51326415  0.57623835     0.92300
N1161       N  0.87868681  0.51156254  0.65022070    -0.02000
C1162       C  0.86227557  0.53356774  0.68173799     0.00600
C1163       C  0.84435409  0.56980830  0.66768662    -0.22300
C1164       C  0.84222909  0.56639022  0.62677719    -0.22500
C1165       C  0.86181806  0.53016299  0.61716214     0.00500
H1166       H  0.82672405  0.59144867  0.68543859     0.14300
H1167       H  0.82555476  0.58639799  0.60643843     0.14300
N1168       N  0.85019334  0.12577881  0.48989944    -0.02000
C1169       C  0.81713120  0.14578287  0.50441099     0.00600
C1170       C  0.82753574  0.17588080  0.53287067    -0.22300
C1171       C  0.86787968  0.17999276  0.53121208    -0.22500
C1172       C  0.88082521  0.15032395  0.50410523     0.00500
H1173       H  0.80761308  0.19819377  0.54698369     0.14300
H1174       H  0.88582971  0.20358867  0.54657596     0.14300
O1175       O  0.93893135  0.49694984  0.88371383    -0.71400
O1176       O  0.56240277  0.49944439  0.88245590    -0.72400
O1177       O  0.50175314  0.05786632  0.88545407    -0.61000
O1178       O  0.49854284  0.43708652  0.88535081    -0.69500
O1179       O  0.49108186  0.43796471  0.81856074    -0.69000
O1180       O  0.50916832  0.05712766  0.81866413    -0.60300
O1181       O  0.56162942  0.49611225  0.81569707    -0.72800
O1182       O  0.93860696  0.50433008  0.81725344    -0.71500
Cu1183     Cu  0.50071104  0.49816377  0.88729291     1.04600
Cu1184     Cu  0.00006386  0.50026856  0.81587118     1.04300
C1185       C  0.91924278  0.49734730  0.85011359     0.94800
C1186       C  0.58158256  0.50091085  0.84858277     0.93900
C1187       C  0.51186307  0.07600711  0.85290125     0.86000
C1188       C  0.48839675  0.41901762  0.85276667     0.92300
N1189       N  0.52124117  0.15059686  0.87652174    -0.02000
C1190       C  0.54237970  0.18253669  0.85907065     0.00600
C1191       C  0.57460254  0.16628296  0.83755049    -0.22300
C1192       C  0.56652657  0.12469965  0.83256142    -0.22500
C1193       C  0.53280833  0.11636416  0.85531181     0.00500
H1194       H  0.59515910  0.18387613  0.81845151     0.14300
H1195       H  0.58163212  0.10362733  0.81206660     0.14300
N1196       N  0.62427065  0.51337189  0.84741061    -0.02000
C1197       C  0.64094565  0.53471516  0.81538580     0.00600
C1198       C  0.65960573  0.57119318  0.82881840    -0.22300
C1199       C  0.66219757  0.56821182  0.86977760    -0.22500
C1200       C  0.64198559  0.53211710  0.87993857     0.00500
H1201       H  0.67759610  0.59250571  0.81064152     0.14300
H1202       H  0.67957590  0.58834273  0.88971091     0.14300
O1203       O  0.61352513  0.06015604  0.50577429    -0.71400
O1204       O  0.61488273  0.43463570  0.48979528    -0.72400
O1205       O  0.61187294  0.48932013  0.55659166    -0.61000
O1206       O  0.61200184  0.50774031  0.93963141    -0.69500
O1207       O  0.67856244  0.51174883  0.93793354    -0.69000
O1208       O  0.67848505  0.48707154  0.55707286    -0.60300
O1209       O  0.68112762  0.43634868  0.48698347    -0.72800
O1210       O  0.67976361  0.06002451  0.50909683    -0.71500
Cu1211     Cu  0.61124666  0.49845442  0.49789271     1.04600
Cu1212     Cu  0.68231482  0.49937183  0.49725958     1.04300
C1213       C  0.64692819  0.08043354  0.50939134     0.94800
C1214       C  0.64836480  0.41503837  0.48740163     0.93900
C1215       C  0.64455088  0.48315052  0.57518621     0.86000
C1216       C  0.64429889  0.51512803  0.92065616     0.92300
O1217       O  0.94022780  0.49330195  0.68353160    -0.71400
O1218       O  0.56445569  0.49952049  0.68359851    -0.72400
O1219       O  0.49056752  0.06025180  0.68050244    -0.61000
O1220       O  0.00938767  0.43467020  0.68047612    -0.69500
O1221       O  0.00635775  0.43706890  0.61330206    -0.69000
O1222       O  0.49357493  0.05788677  0.61333029    -0.60300
O1223       O  0.56398768  0.49954334  0.61671184    -0.72800
O1224       O  0.94077624  0.49690077  0.61672012    -0.71500
Cu1225     Cu  0.50241245  0.49624185  0.68528923     1.04600
Cu1226     Cu  0.00244845  0.49818041  0.61374728     1.04300
C1227       C  0.92100281  0.49840647  0.65014171     0.97200
C1228       C  0.58373300  0.49656126  0.65002558     0.93900
C1229       C  0.98559314  0.07729935  0.64581758     0.86000
C1230       C  0.51436194  0.41764181  0.64579072     0.92300
O1231       O  0.49135205  0.18573234  0.56147630    -0.71400
O1232       O  0.01042232  0.18449791  0.93965401    -0.72400
O1233       O  0.94237216  0.18390633  0.49266112    -0.61000
O1234       O  0.55942922  0.18267919  0.51206956    -0.69500
O1235       O  0.55719735  0.11333217  0.51107385    -0.69000
O1236       O  0.94105672  0.11452583  0.49182648    -0.60300
O1237       O  0.50874392  0.11548499  0.93924489    -0.72800
O1238       O  0.48955494  0.11670012  0.56123854    -0.71500
Cu1239     Cu  0.00107785  0.18669163  0.50084129     1.04600
Cu1240     Cu  0.49922707  0.11267403  0.50036357     1.04300
C1241       C  0.48719958  0.15132046  0.58072949     0.94800
C1242       C  0.51232543  0.15011218  0.91989209     0.93900
C1243       C  0.92308083  0.14916548  0.49354759     0.86000
C1244       C  0.57604221  0.14728544  0.51765473     0.92300
N1245       N  0.47696662  0.15158232  0.62361993    -0.02000
C1246       C  0.95596067  0.18310806  0.64115934     0.00600
C1247       C  0.92340823  0.16628976  0.66226418    -0.22300
C1248       C  0.93073547  0.12458588  0.66633539    -0.22500
C1249       C  0.46443721  0.11691231  0.64354965     0.00500
H1250       H  0.90298292  0.18341020  0.68155737     0.14300
H1251       H  0.91529913  0.10301563  0.68640459     0.14300
N1252       N  0.62616996  0.48412365  0.64955842    -0.02000
C1253       C  0.64349739  0.46278704  0.68097900     0.00600
C1254       C  0.66299043  0.42753601  0.66672895    -0.22300
C1255       C  0.66461526  0.43106694  0.62577218    -0.22500
C1256       C  0.64329936  0.46626604  0.61625625     0.00500
H1257       H  0.68163799  0.40670138  0.68435062     0.14300
H1258       H  0.68192403  0.41182561  0.60530218     0.14300
N1259       N  0.64745757  0.12562535  0.51648802    -0.02000
C1260       C  0.68055928  0.14880474  0.52674949     0.00600
C1261       C  0.67084293  0.17789489  0.55627290    -0.22300
C1262       C  0.63010742  0.17731054  0.55962413    -0.22500
C1263       C  0.61662331  0.14630886  0.53390197     0.00500
H1264       H  0.69013268  0.20285346  0.56744219     0.14300
H1265       H  0.61211229  0.20049834  0.57495696     0.14300
O1266       O  0.51045406  0.37827477  0.56118666    -0.71400
O1267       O  0.99127796  0.37953165  0.93914550    -0.72400
O1268       O  0.94282434  0.38164001  0.51093549    -0.61000
O1269       O  0.55895489  0.38051991  0.49182280    -0.69500
O1270       O  0.55767887  0.31113709  0.49267182    -0.69000
O1271       O  0.94061610  0.31229181  0.51190030    -0.60300
O1272       O  0.48962168  0.31051862  0.93954942    -0.72800
O1273       O  0.50867042  0.30924126  0.56141099    -0.71500
Cu1274     Cu  0.00078585  0.38233536  0.50029297     1.04600
Cu1275     Cu  0.49897116  0.30831626  0.50075651     1.04300
C1276       C  0.51280312  0.34364515  0.58067781     0.94800
C1277       C  0.48771958  0.34490745  0.91978424     0.93900
C1278       C  0.92399508  0.34767571  0.51748826     0.86000
C1279       C  0.57694785  0.34589059  0.49358280     0.92300
N1280       N  0.52299888  0.34336546  0.62359075    -0.02000
C1281       C  0.54400882  0.31184156  0.64115851     0.00600
C1282       C  0.57657164  0.32865867  0.66227883    -0.22300
C1283       C  0.56924171  0.37036060  0.66634027    -0.22500
C1284       C  0.53553246  0.37803091  0.64353157     0.00500
H1285       H  0.59700525  0.31153741  0.68159025     0.14300
H1286       H  0.58467926  0.39192697  0.68642404     0.14300
N1287       N  0.64981467  0.36928148  0.48996218    -0.02000
C1288       C  0.68288664  0.34926379  0.50446843     0.00600
C1289       C  0.67251525  0.31920542  0.53297622    -0.22300
C1290       C  0.63216452  0.31512051  0.53134898    -0.22500
C1291       C  0.61919683  0.34476525  0.50420621     0.00500
H1292       H  0.69244772  0.29688632  0.54709338     0.14300
H1293       H  0.61422603  0.29154000  0.54673421     0.14300
N1294       N  0.47883455  0.34443251  0.87639509    -0.02000
C1295       C  0.45763899  0.31253707  0.85892142     0.00600
C1296       C  0.92549514  0.32887215  0.83729860    -0.22300
C1297       C  0.93369849  0.37042524  0.83227223    -0.22500
C1298       C  0.46740029  0.37868194  0.85510599     0.00500
H1299       H  0.90491201  0.31132225  0.81817330     0.14300
H1300       H  0.91867197  0.39152566  0.81172181     0.14300
N1301       N  0.87671744  0.48442765  0.84871470    -0.02000
C1302       C  0.86065292  0.46303670  0.81650930     0.00600
C1303       C  0.84102905  0.42702006  0.82971025    -0.22300
C1304       C  0.83733329  0.43050005  0.87054674    -0.22500
C1305       C  0.85795792  0.46628201  0.88094765     0.00500
H1306       H  0.82318190  0.40586881  0.81120270     0.14300
H1307       H  0.81927375  0.41074941  0.89020835     0.14300
N1308       N  0.85257830  0.36933452  0.51632357    -0.02000
C1309       C  0.81948823  0.34615527  0.52659483     0.00600
C1310       C  0.82923978  0.31704915  0.55611060    -0.22300
C1311       C  0.86997868  0.31761819  0.55944319    -0.22500
C1312       C  0.88342992  0.34862975  0.53372210     0.00500
H1313       H  0.80995930  0.29209288  0.56728648     0.14300
H1314       H  0.88799133  0.29442221  0.57476966     0.14300
C1315       C  0.49999953  0.24746903  0.77283087     0.04600
C1316       C  0.51824875  0.21542751  0.79452086    -0.11500
C1317       C  0.52022290  0.21612020  0.83756781     0.02100
C1318       C  0.49997665  0.24751071  0.85885686    -0.10000
C1319       C  0.47974420  0.27888402  0.83749717     0.04600
C1320       C  0.48173660  0.27952730  0.79445255    -0.09500
H1321       H  0.53171175  0.19023703  0.77743991     0.10200
H1322       H  0.49997547  0.24752730  0.89162098     0.07700
H1323       H  0.46829549  0.30470478  0.77731427     0.07600
C1324       C  0.00002636  0.24746425  0.72758909     0.04600
C1325       C  0.98002885  0.21612929  0.70592757    -0.11500
C1326       C  0.97837955  0.21671131  0.66287662     0.02100
C1327       C  0.99997740  0.24748486  0.64162610    -0.10000
C1328       C  0.02160802  0.27824417  0.66287673     0.04600
C1329       C  0.02000733  0.27880612  0.70592980    -0.09500
H1330       H  0.96532317  0.19142006  0.72301220     0.10200
H1331       H  0.99995289  0.24749664  0.60889834     0.07700
H1332       H  0.03472576  0.30351168  0.72301721     0.07600
C1333       C  0.75189562  0.77146480  0.46324406     0.04600
C1334       C  0.71772743  0.79726661  0.45972904    -0.11500
C1335       C  0.71685251  0.83760079  0.97807627     0.02100
C1336       C  0.75251533  0.85609575  0.99145915    -0.10000
C1337       C  0.78733917  0.83255197  0.99340815     0.04600
C1338       C  0.78734674  0.79103610  0.47788585    -0.09500
H1339       H  0.68935686  0.78332002  0.45057159     0.10200
H1340       H  0.75113116  0.88505989  0.00851251     0.07700
H1341       H  0.81374809  0.77235154  0.48328043     0.07600
C1342       C  0.74809729  0.72351779  0.46326454     0.04600
C1343       C  0.71267259  0.70396316  0.47795535    -0.11500
C1344       C  0.71270483  0.66241763  0.99350558     0.02100
C1345       C  0.74752247  0.63886858  0.99150301    -0.10000
C1346       C  0.78315151  0.65735550  0.97804309     0.04600
C1347       C  0.78225256  0.69770560  0.45973043    -0.09500
H1348       H  0.68628605  0.72265515  0.48336000     0.10200
H1349       H  0.74895153  0.60990705  0.00856483     0.07700
H1350       H  0.81060795  0.71164506  0.45054344     0.07600
C1351       C  0.77116562  0.99515043  0.24939356     0.04600
C1352       C  0.79282141  0.00816320  0.21494662    -0.11500
C1353       C  0.83562713  0.01071522  0.21479232     0.02100
C1354       C  0.85727093  0.99687289  0.24839779    -0.10000
C1355       C  0.83684060  0.98197498  0.28247554     0.04600
C1356       C  0.79388109  0.98284585  0.28340233    -0.09500
H1357       H  0.77622322  0.01844623  0.18854985     0.10200
H1358       H  0.88980156  0.99758686  0.24806729     0.07700
H1359       H  0.77810258  0.97185846  0.31014678     0.07600
C1360       C  0.72533419  0.99488354  0.24966198     0.04600
C1361       C  0.70284028  0.98286870  0.21527964    -0.11500
C1362       C  0.65991353  0.98220017  0.21546931     0.02100
C1363       C  0.63925250  0.99678553  0.24930648    -0.10000
C1364       C  0.66065719  0.01025891  0.28331531     0.04600
C1365       C  0.70344994  0.00756661  0.28393700    -0.09500
H1366       H  0.71875290  0.97214857  0.18864273     0.10200
H1367       H  0.60672425  0.99761050  0.24921737     0.07700
H1368       H  0.71984161  0.01774560  0.31062245     0.07600
O1369       O  0.81866170  0.93274017  0.00719357    -0.71400
O1370       O  0.82044760  0.56105235  0.98907842    -0.72400
O1371       O  0.82159934  0.98329267  0.43769926    -0.61000
O1372       O  0.82146555  0.00788392  0.05683729    -0.69500
O1373       O  0.88807797  0.00566353  0.05651226    -0.69000
O1374       O  0.88815819  0.98734811  0.43955388    -0.60300
O1375       O  0.88671693  0.56265159  0.99105528    -0.72800
O1376       O  0.88497486  0.93286646  0.00609512    -0.71500
Cu1377     Cu  0.81772970  0.99562750  0.99701383     1.04600
Cu1378     Cu  0.88879678  0.99657767  0.99782005     1.04300
C1379       C  0.85156207  0.91251451  0.00890579     0.94800
C1380       C  0.85322414  0.58231619  0.98923737     0.93900
C1381       C  0.85588829  0.97994219  0.42050459     0.86000
C1382       C  0.85537625  0.01181202  0.07502971     0.92300
N1383       N  0.87374110  0.01090594  0.14943401    -0.02000
C1384       C  0.85642462  0.03228007  0.18081173     0.00600
C1385       C  0.83688083  0.06748447  0.16649354    -0.22300
C1386       C  0.83523038  0.06389063  0.12554292    -0.22500
C1387       C  0.85657427  0.02870038  0.11609414     0.00500
H1388       H  0.81823622  0.08833506  0.18407386     0.14300
H1389       H  0.81790582  0.08309685  0.10503072     0.14300
N1390       N  0.85190129  0.62805716  0.99212902    -0.02000
C1391       C  0.81824756  0.64890660  0.00394348     0.00600
C1392       C  0.82721331  0.67996703  0.03188676    -0.22300
C1393       C  0.86763373  0.68301029  0.03336508    -0.22500
C1394       C  0.88190465  0.65220733  0.00820072     0.00500
H1395       H  0.80672438  0.70295365  0.04398313     0.14300
H1396       H  0.88489480  0.70681217  0.04921472     0.14300
O1397       O  0.93785483  0.99556197  0.38242555    -0.71400
O1398       O  0.56132803  0.99803624  0.38374823    -0.72400
O1399       O  0.50291015  0.55936757  0.38894066    -0.61000
O1400       O  0.49733011  0.93563569  0.38885513    -0.69500
O1401       O  0.49111054  0.93285906  0.32192751    -0.69000
O1402       O  0.50908141  0.56226914  0.32201828    -0.60300
O1403       O  0.56162430  0.99079510  0.31727930    -0.72800
O1404       O  0.93860263  0.99903904  0.31566974    -0.71500
Cu1405     Cu  0.49955462  0.99682444  0.38729507     1.04600
Cu1406     Cu  0.00016793  0.99486882  0.31586724     1.04300
C1407       C  0.91866166  0.99417835  0.34853416     0.94800
C1408       C  0.58100314  0.99771124  0.35016320     0.93900
C1409       C  0.51260748  0.57915686  0.35715159     0.86000
C1410       C  0.48759652  0.91591052  0.35703625     0.92300
N1411       N  0.52291297  0.65280887  0.38250745    -0.02000
C1412       C  0.54454137  0.68468128  0.36567225     0.00600
C1413       C  0.57709243  0.66844651  0.34468464    -0.22300
C1414       C  0.56867278  0.62701026  0.33909831    -0.22500
C1415       C  0.53454791  0.61873838  0.36123870     0.00500
H1416       H  0.59799198  0.68607298  0.32599241     0.14300
H1417       H  0.58355356  0.60616630  0.31825242     0.14300
N1418       N  0.62352598  0.01064497  0.34881693    -0.02000
C1419       C  0.63960058  0.03204951  0.31663539     0.00600
C1420       C  0.65928350  0.06802115  0.32987596    -0.22300
C1421       C  0.66298242  0.06450160  0.37071416    -0.22500
C1422       C  0.64230936  0.02874288  0.38108179     0.00500
H1423       H  0.67714467  0.08917136  0.31139495     0.14300
H1424       H  0.68105901  0.08422090  0.39040431     0.14300
O1425       O  0.61509298  0.56212689  0.00619693    -0.71400
O1426       O  0.61336101  0.93235917  0.99111490    -0.72400
O1427       O  0.60851349  0.98813327  0.05702151    -0.61000
O1428       O  0.61163337  0.00457833  0.44021260    -0.69500
O1429       O  0.67817823  0.00911475  0.43982647    -0.69000
O1430       O  0.67508276  0.98503242  0.05913334    -0.60300
O1431       O  0.67963378  0.93394993  0.98932261    -0.72800
O1432       O  0.68140526  0.56221874  0.00745207    -0.71500
Cu1433     Cu  0.60956510  0.99629718  0.99833271     1.04600
Cu1434     Cu  0.68063116  0.99702351  0.99933106     1.04300
C1435       C  0.64851149  0.58246020  0.00908172     0.94800
C1436       C  0.64685393  0.91269263  0.98937226     0.93900
C1437       C  0.64064995  0.98165724  0.07640223     0.86000
C1438       C  0.64420349  0.01207138  0.42186700     0.92300
O1439       O  0.93544380  0.99544365  0.18354265    -0.71400
O1440       O  0.55966563  0.00158601  0.18360607    -0.72400
O1441       O  0.49556637  0.55789920  0.18381706    -0.61000
O1442       O  0.00430175  0.93701330  0.18380802    -0.69500
O1443       O  0.00114652  0.93588673  0.11665038    -0.69000
O1444       O  0.49873736  0.55906479  0.11666535    -0.60300
O1445       O  0.55911946  0.99804454  0.11678925    -0.72800
O1446       O  0.93591319  0.99544362  0.11665950    -0.71500
Cu1447     Cu  0.49748727  0.99867668  0.18529927     1.04600
Cu1448     Cu  0.99744549  0.99678166  0.11375342     1.04300
C1449       C  0.91616883  0.99843128  0.14994945     0.97200
C1450       C  0.57889255  0.99652026  0.15023369     0.93900
C1451       C  0.99072601  0.57675087  0.15003255     0.86000
C1452       C  0.50915586  0.91818569  0.15002288     0.92300
O1453       O  0.49341621  0.68672961  0.06768652    -0.71400
O1454       O  0.01161453  0.68621278  0.44572581    -0.72400
O1455       O  0.94396265  0.68550102  0.99913670    -0.61000
O1456       O  0.56094628  0.68430109  0.01733714    -0.69500
O1457       O  0.55908890  0.61496715  0.01544682    -0.69000
O1458       O  0.94256278  0.61613920  0.99812295    -0.60300
O1459       O  0.50964401  0.61716655  0.44463284    -0.72800
O1460       O  0.49216549  0.61775725  0.06658322    -0.71500
Cu1461     Cu  0.00262479  0.68818674  0.00692671     1.04600
Cu1462     Cu  0.50092094  0.61417208  0.00576353     1.04300
C1463       C  0.48978340  0.65202625  0.08655480     0.94800
C1464       C  0.51349720  0.65197965  0.42569145     0.93900
C1465       C  0.92459508  0.65081978  0.99959191     0.86000
C1466       C  0.57794253  0.64896387  0.02181693     0.92300
N1467       N  0.48003693  0.65147455  0.12956684    -0.02000
C1468       C  0.95800158  0.68190463  0.14758134     0.00600
C1469       C  0.92640666  0.66360154  0.16897198    -0.22300
C1470       C  0.93567336  0.62236697  0.17300660    -0.22500
C1471       C  0.46929139  0.61624279  0.14968358     0.00500
H1472       H  0.90542862  0.67971962  0.18848365     0.14300
H1473       H  0.92132718  0.60004497  0.19310020     0.14300
N1474       N  0.62121758  0.98339892  0.15035249    -0.02000
C1475       C  0.63765466  0.96143607  0.18190825     0.00600
C1476       C  0.65553444  0.92516033  0.16791674    -0.22300
C1477       C  0.65761911  0.92851897  0.12700010    -0.22500
C1478       C  0.63804527  0.96474788  0.11732521     0.00500
H1479       H  0.67318064  0.90354174  0.18570385     0.14300
H1480       H  0.67428133  0.90848627  0.10669874     0.14300
N1481       N  0.64916125  0.62747244  0.01696293    -0.02000
C1482       C  0.68262627  0.65099804  0.02478179     0.00600
C1483       C  0.67442306  0.68112939  0.05378746    -0.22300
C1484       C  0.63402546  0.68013706  0.05987493    -0.22500
C1485       C  0.61925281  0.64820137  0.03594817     0.00500
H1486       H  0.69416105  0.70654527  0.06303675     0.14300
H1487       H  0.61679683  0.70366759  0.07561732     0.14300
O1488       O  0.50788828  0.87723595  0.06653555    -0.71400
O1489       O  0.99044328  0.87788850  0.44454857    -0.72400
O1490       O  0.94099199  0.88002910  0.01529303    -0.61000
O1491       O  0.55751533  0.87887555  0.99814142    -0.69500
O1492       O  0.55612502  0.80951266  0.99914110    -0.69000
O1493       O  0.93914859  0.81069369  0.01718521    -0.60300
O1494       O  0.48845508  0.80884450  0.44563954    -0.72800
O1495       O  0.50665180  0.80826136  0.06762925    -0.71500
Cu1496     Cu  0.99915580  0.88083573  0.00569186     1.04600
Cu1497     Cu  0.49746630  0.80682218  0.00684816     1.04300
C1498       C  0.51025999  0.84295807  0.08650916     0.94800
C1499       C  0.48657805  0.84308484  0.42560225     0.93900
C1500       C  0.92215082  0.84602651  0.02165492     0.86000
C1501       C  0.57548596  0.84419592  0.99963362     0.92300
N1502       N  0.51995535  0.84349158  0.12954532    -0.02000
C1503       C  0.54203013  0.81308501  0.14758477     0.00600
C1504       C  0.57360290  0.83142763  0.16900721    -0.22300
C1505       C  0.56426396  0.87263981  0.17305364    -0.22500
C1506       C  0.53063518  0.87872347  0.14969849     0.00500
H1507       H  0.59460734  0.81533404  0.18853713     0.14300
H1508       H  0.57857193  0.89497188  0.19317351     0.14300
N1509       N  0.64816467  0.86694941  0.99221863    -0.02000
C1510       C  0.68182239  0.84607555  0.00401561     0.00600
C1511       C  0.67288132  0.81501373  0.03196476    -0.22300
C1512       C  0.63246010  0.81199337  0.03345594    -0.22500
C1513       C  0.61817330  0.84281128  0.00829375     0.00500
H1514       H  0.69337372  0.79200589  0.04404553     0.14300
H1515       H  0.61520791  0.78818717  0.04929596     0.14300
N1516       N  0.47717371  0.84226370  0.38240135    -0.02000
C1517       C  0.45551330  0.81041671  0.36554399     0.00600
C1518       C  0.92302333  0.82668800  0.34446755    -0.22300
C1519       C  0.93152420  0.86810242  0.33884687    -0.22500
C1520       C  0.46562719  0.87634003  0.36106319     0.00500
H1521       H  0.90210987  0.80908400  0.32575299     0.14300
H1522       H  0.91669609  0.88895778  0.31795002     0.14300
N1523       N  0.87596747  0.98174474  0.34730603    -0.02000
C1524       C  0.85930906  0.96041267  0.31525423     0.00600
C1525       C  0.84071363  0.92388753  0.32864499    -0.22300
C1526       C  0.83811142  0.92683496  0.36960214    -0.22500
C1527       C  0.85826609  0.96295615  0.37980014     0.00500
H1528       H  0.82274558  0.90256883  0.31043843     0.14300
H1529       H  0.82074940  0.90667069  0.38950405     0.14300
N1530       N  0.85092533  0.86750131  0.01680433    -0.02000
C1531       C  0.81747719  0.84397103  0.02465164     0.00600
C1532       C  0.82572556  0.81384523  0.05366625    -0.22300
C1533       C  0.86613045  0.81484337  0.05973521    -0.22500
C1534       C  0.88086085  0.84677627  0.03578685     0.00500
H1535       H  0.80600273  0.78843150  0.06293812     0.14300
H1536       H  0.88338623  0.79132081  0.07548440     0.14300
C1537       C  0.50002404  0.74749815  0.27917134     0.04600
C1538       C  0.52102676  0.71734052  0.30079604    -0.11500
C1539       C  0.52241607  0.71787269  0.34383904     0.02100
C1540       C  0.50000758  0.74753149  0.36505028    -0.10000
C1541       C  0.47761109  0.77717949  0.34377699     0.04600
C1542       C  0.47901375  0.77767283  0.30073421    -0.09500
H1543       H  0.53640462  0.69342240  0.28367054     0.10200
H1544       H  0.50000417  0.74754176  0.39779395     0.07700
H1545       H  0.46365076  0.80158059  0.28355789     0.07600
C1546       C  0.00005498  0.74748221  0.23403361     0.04600
C1547       C  0.98110109  0.71548089  0.21242699    -0.11500
C1548       C  0.97936574  0.71608990  0.16938821     0.02100
C1549       C  0.00002990  0.74748660  0.14816227    -0.10000
C1550       C  0.02071053  0.77887980  0.16939031     0.04600
C1551       C  0.01900148  0.77948278  0.21242979    -0.09500
H1552       H  0.96727449  0.69026177  0.22955085     0.10200
H1553       H  0.00001097  0.74749558  0.11545426     0.07700
H1554       H  0.03282799  0.80470504  0.22955782     0.07600
C1555       C  0.75187997  0.77145339  0.96323526     0.04600
C1556       C  0.71770892  0.79725356  0.95973861    -0.11500
C1557       C  0.71686450  0.83761416  0.47806483     0.02100
C1558       C  0.75252406  0.85611241  0.49145287    -0.10000
C1559       C  0.78734848  0.83256995  0.49341357     0.04600
C1560       C  0.78733486  0.79102298  0.97786948    -0.09500
H1561       H  0.68933547  0.78330651  0.95059052     0.10200
H1562       H  0.75113541  0.88507942  0.50850108     0.07700
H1563       H  0.81373813  0.77233850  0.98325267     0.07600
C1564       C  0.74808644  0.72350632  0.96324639     0.04600
C1565       C  0.71267205  0.70394298  0.97795152    -0.11500
C1566       C  0.71269056  0.66244046  0.49351534     0.02100
C1567       C  0.74750153  0.63888062  0.49152470    -0.10000
C1568       C  0.78313996  0.65735515  0.47807500     0.04600
C1569       C  0.78224384  0.69770100  0.95969068    -0.09500
H1570       H  0.68628421  0.72262954  0.98336993     0.10200
H1571       H  0.74891696  0.60991856  0.50858690     0.07700
H1572       H  0.81059156  0.71164757  0.95048922     0.07600
C1573       C  0.77117569  0.99510737  0.74939399     0.04600
C1574       C  0.79283074  0.00813111  0.71495024    -0.11500
C1575       C  0.83563613  0.01068986  0.71479787     0.02100
C1576       C  0.85728088  0.99684373  0.74840094    -0.10000
C1577       C  0.83685179  0.98193556  0.78247501     0.04600
C1578       C  0.79389205  0.98279851  0.78340067    -0.09500
H1579       H  0.77623210  0.01841879  0.68855547     0.10200
H1580       H  0.88981160  0.99756438  0.74807204     0.07700
H1581       H  0.77811433  0.97180397  0.81014302     0.07600
C1582       C  0.72534422  0.99483699  0.74966240     0.04600
C1583       C  0.70285116  0.98283013  0.71527700    -0.11500
C1584       C  0.65992438  0.98216310  0.71546437     0.02100
C1585       C  0.63926249  0.99674103  0.74930470    -0.10000
C1586       C  0.66066684  0.01020709  0.78331715     0.04600
C1587       C  0.70345929  0.00751284  0.78393948    -0.09500
H1588       H  0.71876490  0.97211664  0.68863793     0.10200
H1589       H  0.60673450  0.99756873  0.74921417     0.07700
H1590       H  0.71985044  0.01768804  0.81062670     0.07600
O1591       O  0.81866504  0.93277187  0.50719926    -0.71400
O1592       O  0.82042886  0.56102652  0.48908326    -0.72400
O1593       O  0.82160334  0.98325675  0.93769193    -0.61000
O1594       O  0.82147416  0.00791358  0.55684651    -0.69500
O1595       O  0.88808665  0.00569564  0.55651427    -0.69000
O1596       O  0.88816197  0.98731588  0.93955388    -0.60300
O1597       O  0.88669853  0.56262763  0.49105944    -0.72800
O1598       O  0.88497835  0.93289846  0.50609512    -0.71500
Cu1599     Cu  0.81773242  0.99566117  0.49702211     1.04600
Cu1600     Cu  0.88879949  0.99661042  0.49782023     1.04300
C1601       C  0.85156582  0.91254611  0.50890782     0.94800
C1602       C  0.85320482  0.58229128  0.48924437     0.93900
C1603       C  0.85589445  0.97990759  0.92050141     0.86000
C1604       C  0.85538646  0.01183947  0.57503643     0.92300
N1605       N  0.87375167  0.01090918  0.64944044    -0.02000
C1606       C  0.85643164  0.03226938  0.68082502     0.00600
C1607       C  0.83688544  0.06747737  0.66651903    -0.22300
C1608       C  0.83523934  0.06390072  0.62556677    -0.22500
C1609       C  0.85658733  0.02871661  0.61610570     0.00500
H1610       H  0.81823703  0.08831836  0.68410609     0.14300
H1611       H  0.81791315  0.08311266  0.60506100     0.14300
N1612       N  0.85188111  0.62803172  0.49214263    -0.02000
C1613       C  0.81822981  0.64887538  0.50397385     0.00600
C1614       C  0.82720025  0.67991686  0.53193566    -0.22300
C1615       C  0.86762116  0.68295831  0.53340911    -0.22500
C1616       C  0.88188634  0.65217209  0.50822216     0.00500
H1617       H  0.80671459  0.70289900  0.54404569     0.14300
H1618       H  0.88488542  0.70675150  0.54926673     0.14300
O1619       O  0.93786300  0.99553115  0.88242721    -0.71400
O1620       O  0.56133812  0.99799444  0.88375044    -0.72400
O1621       O  0.50292791  0.55935558  0.88894629    -0.61000
O1622       O  0.49733957  0.93559705  0.88884930    -0.69500
O1623       O  0.49112069  0.93282767  0.82192151    -0.69000
O1624       O  0.50909793  0.56226178  0.82202383    -0.60300
O1625       O  0.56163463  0.99076267  0.81728064    -0.72800
O1626       O  0.93861140  0.99901573  0.81567165    -0.71500
Cu1627     Cu  0.49956525  0.99678540  0.88729648     1.04600
Cu1628     Cu  0.00017611  0.99484513  0.81586869     1.04300
C1629       C  0.91867044  0.99414985  0.84853530     0.94800
C1630       C  0.58101337  0.99767301  0.85016564     0.93900
C1631       C  0.51262600  0.57914653  0.85715830     0.86000
C1632       C  0.48760558  0.91587559  0.85702849     0.92300
N1633       N  0.52293605  0.65279837  0.88251191    -0.02000
C1634       C  0.54456504  0.68466853  0.86567372     0.00600
C1635       C  0.57711615  0.66843108  0.84468834    -0.22300
C1636       C  0.56869581  0.62699438  0.83910629    -0.22500
C1637       C  0.53457067  0.61872541  0.86124713     0.00500
H1638       H  0.59801616  0.68605509  0.82599459     0.14300
H1639       H  0.58357519  0.60614846  0.81826120     0.14300
N1640       N  0.62353619  0.01060606  0.84882114    -0.02000
C1641       C  0.63961291  0.03200315  0.81663595     0.00600
C1642       C  0.65929609  0.06797697  0.82987023    -0.22300
C1643       C  0.66299012  0.06446862  0.87070968    -0.22500
C1644       C  0.64231541  0.02871321  0.88108414     0.00500
H1645       H  0.67715875  0.08912312  0.81138566     0.14300
H1646       H  0.68106368  0.08419357  0.89039708     0.14300
O1647       O  0.61507893  0.56215372  0.50620135    -0.71400
O1648       O  0.61336806  0.93236405  0.49110535    -0.72400
O1649       O  0.60852690  0.98813679  0.55701380    -0.61000
O1650       O  0.61163070  0.00457240  0.94022030    -0.69500
O1651       O  0.67817589  0.00910070  0.93983944    -0.69000
O1652       O  0.67509596  0.98502887  0.55911706    -0.60300
O1653       O  0.67964036  0.93395496  0.48929963    -0.72800
O1654       O  0.68139080  0.56225091  0.50745640    -0.71500
Cu1655     Cu  0.60957297  0.99630084  0.49832468     1.04600
Cu1656     Cu  0.68063903  0.99702710  0.49931541     1.04300
C1657       C  0.64849566  0.58248973  0.50908686     0.94800
C1658       C  0.64686051  0.91269762  0.48935643     0.93900
C1659       C  0.64066497  0.98165629  0.57639028     0.86000
C1660       C  0.64420329  0.01205553  0.92187543     0.92300
O1661       O  0.93545711  0.99545027  0.68354615    -0.71400
O1662       O  0.55968609  0.00158267  0.68359994    -0.72400
O1663       O  0.49555602  0.55789835  0.68381879    -0.61000
O1664       O  0.00431327  0.93701850  0.68381522    -0.69500
O1665       O  0.00115005  0.93588486  0.61665833    -0.69000
O1666       O  0.49872608  0.55906301  0.61666694    -0.60300
O1667       O  0.55913278  0.99803002  0.61678382    -0.72800
O1668       O  0.93592129  0.99544460  0.61666279    -0.71500
Cu1669     Cu  0.49750723  0.99867645  0.68529921     1.04600
Cu1670     Cu  0.99745346  0.99677920  0.61375399     1.04300
C1671       C  0.91617953  0.99843501  0.64995397     0.97200
C1672       C  0.57890933  0.99650924  0.65022650     0.93900
C1673       C  0.99070518  0.57675327  0.65003387     0.86000
C1674       C  0.50916638  0.91818106  0.65003189     0.92300
O1675       O  0.49338623  0.68672580  0.56768269    -0.71400
O1676       O  0.01164690  0.68621249  0.94573270    -0.72400
O1677       O  0.94392992  0.68548317  0.49912984    -0.61000
O1678       O  0.56091429  0.68431542  0.51733376    -0.69500
O1679       O  0.55907290  0.61498147  0.51544161    -0.69000
O1680       O  0.94254794  0.61612043  0.49812143    -0.60300
O1681       O  0.50966058  0.61716138  0.94463800    -0.72800
O1682       O  0.49215191  0.61775306  0.56658016    -0.71500
Cu1683     Cu  0.00259043  0.68818609  0.50691963     1.04600
Cu1684     Cu  0.50090597  0.61417231  0.50575928     1.04300
C1685       C  0.48976314  0.65202176  0.58655146     0.94800
C1686       C  0.51352098  0.65197306  0.92569585     0.93900
C1687       C  0.92457214  0.65079643  0.49959279     0.86000
C1688       C  0.57791829  0.64898252  0.52181382     0.92300
N1689       N  0.48002081  0.65146951  0.62956422    -0.02000
C1690       C  0.95799025  0.68190862  0.64757906     0.00600
C1691       C  0.92639455  0.66361097  0.66897305    -0.22300
C1692       C  0.93565625  0.62237499  0.67300857    -0.22500
C1693       C  0.46927676  0.61623917  0.64968359     0.00500
H1694       H  0.90542199  0.67973311  0.68848768     0.14300
H1695       H  0.92131059  0.60005658  0.69310615     0.14300
N1696       N  0.62123340  0.98338352  0.65034318    -0.02000
C1697       C  0.63766717  0.96141063  0.68189464     0.00600
C1698       C  0.65554721  0.92513858  0.66789410    -0.22300
C1699       C  0.65763638  0.92850984  0.62697869    -0.22500
C1700       C  0.63806375  0.96474168  0.61731184     0.00500
H1701       H  0.67319056  0.90351348  0.68567659     0.14300
H1702       H  0.67429854  0.90848162  0.60667296     0.14300
N1703       N  0.64914105  0.62750170  0.51697000    -0.02000
C1704       C  0.68260159  0.65103527  0.52478582     0.00600
C1705       C  0.67439081  0.68117520  0.55378081    -0.22300
C1706       C  0.63399329  0.68017596  0.55986687    -0.22500
C1707       C  0.61922780  0.64823079  0.53594747     0.00500
H1708       H  0.69412424  0.70659617  0.56302593     0.14300
H1709       H  0.61675955  0.70370695  0.57560269     0.14300
O1710       O  0.50789706  0.87724073  0.56654241    -0.71400
O1711       O  0.99043190  0.87786512  0.94454296    -0.72400
O1712       O  0.94100229  0.88005875  0.51529841    -0.61000
O1713       O  0.55752371  0.87888563  0.49814674    -0.69500
O1714       O  0.55612674  0.80952295  0.49913830    -0.69000
O1715       O  0.93914917  0.81072316  0.51718741    -0.60300
O1716       O  0.48845615  0.80881731  0.94563872    -0.72800
O1717       O  0.50665370  0.80826639  0.56762826    -0.71500
Cu1718     Cu  0.99916691  0.88085291  0.50569837     1.04600
Cu1719     Cu  0.49746665  0.80683970  0.50684771     1.04300
C1720       C  0.51026483  0.84296005  0.58651243     0.94800
C1721       C  0.48657496  0.84305581  0.92559879     0.93900
C1722       C  0.92215632  0.84605864  0.52165875     0.86000
C1723       C  0.57549147  0.84420419  0.49963100     0.92300
N1724       N  0.51995849  0.84348656  0.62954936    -0.02000
C1725       C  0.54203265  0.81307647  0.64758456     0.00600
C1726       C  0.57360746  0.83141552  0.66900684    -0.22300
C1727       C  0.56426931  0.87262711  0.67306040    -0.22500
C1728       C  0.53063945  0.87871508  0.64970798     0.00500
H1729       H  0.59461382  0.81531864  0.68853242     0.14300
H1730       H  0.57858068  0.89495659  0.69318081     0.14300
N1731       N  0.64817175  0.86695470  0.49220563    -0.02000
C1732       C  0.68183057  0.84608201  0.50400159     0.00600
C1733       C  0.67289076  0.81501835  0.53194918    -0.22300
C1734       C  0.63246968  0.81199628  0.53344103    -0.22500
C1735       C  0.61818101  0.84281502  0.50828116     0.00500
H1736       H  0.69338459  0.79201209  0.54403045     0.14300
H1737       H  0.61521844  0.78819035  0.54928264     0.14300
N1738       N  0.47717330  0.84223082  0.88239727    -0.02000
C1739       C  0.45551307  0.81038381  0.86553999     0.00600
C1740       C  0.92302241  0.82666553  0.84445685    -0.22300
C1741       C  0.93153143  0.86807760  0.83883071    -0.22500
C1742       C  0.46563503  0.87630536  0.86105158     0.00500
H1743       H  0.90210846  0.80906257  0.82574159     0.14300
H1744       H  0.91671021  0.88893230  0.81792869     0.14300
N1745       N  0.87597757  0.98171185  0.84730516    -0.02000
C1746       C  0.85932370  0.96037665  0.81525301     0.00600
C1747       C  0.84073462  0.92384783  0.82864305    -0.22300
C1748       C  0.83813058  0.92679485  0.86960005    -0.22500
C1749       C  0.85827800  0.96292024  0.87979828     0.00500
H1750       H  0.82277101  0.90252553  0.81043585     0.14300
H1751       H  0.82077134  0.90662746  0.88950155     0.14300
N1752       N  0.85093099  0.86753236  0.51680471    -0.02000
C1753       C  0.81748384  0.84400133  0.52465632     0.00600
C1754       C  0.82573320  0.81388421  0.55367913    -0.22300
C1755       C  0.86613776  0.81488723  0.55974982    -0.22500
C1756       C  0.88086708  0.84681401  0.53579328     0.00500
H1757       H  0.80601217  0.78847088  0.56295594     0.14300
H1758       H  0.88339455  0.79136942  0.57550474     0.14300
C1759       C  0.50004061  0.74747553  0.77916953     0.04600
C1760       C  0.52105387  0.71732627  0.80079477    -0.11500
C1761       C  0.52243907  0.71785762  0.84383804     0.02100
C1762       C  0.50001992  0.74750876  0.86504788    -0.10000
C1763       C  0.47761418  0.77714830  0.84377379     0.04600
C1764       C  0.47901726  0.77764055  0.80073120    -0.09500
H1765       H  0.53644041  0.69341387  0.78366945     0.10200
H1766       H  0.50001513  0.74751966  0.89779152     0.07700
H1767       H  0.46364691  0.80154206  0.78355314     0.07600
C1768       C  0.00006755  0.74746557  0.73403249     0.04600
C1769       C  0.98110916  0.71546874  0.71242448    -0.11500
C1770       C  0.97936455  0.71608661  0.66938633     0.02100
C1771       C  0.00002706  0.74748558  0.64816120    -0.10000
C1772       C  0.02071313  0.77887442  0.66939074     0.04600
C1773       C  0.01901109  0.77946944  0.71243078    -0.09500
H1774       H  0.96728362  0.69024809  0.72954675     0.10200
H1775       H  0.00000195  0.74749966  0.61545314     0.07700
H1776       H  0.03283911  0.80468891  0.72956105     0.07600
loop_ 
_geom_bond_atom_site_label_1 
_geom_bond_atom_site_label_2 
_geom_bond_distance 
_geom_bond_site_symmetry_2 
_ccdc_geom_bond_type 
C1            C2   1.413       .  A
C1            C6   1.415       .  A
C1           C10   1.535       .  S
C2          C225   1.425       .  A
C2            H7   1.083       .  S
C3            C4   1.392       .  A
C3          C224   1.425       .  A
C3          C178   1.472   1_556  S
C4            C5   1.389       .  A
C4            H8   1.085   1_556  S
C5          C228   1.426       .  A
C5          C199   1.484   1_556  S
C6          C227   1.426       .  A
C6            H9   1.082       .  S
C10          C11   1.415       .  A
C10          C15   1.413       .  A
C11         C234   1.426       .  A
C11          H16   1.082       .  S
C12          C13   1.389       .  A
C12         C233   1.426       .  A
C12         C150   1.484   1_556  S
C13          C14   1.392       .  A
C13          H17   1.085   1_556  S
C14         C237   1.425       .  A
C14          C59   1.472   1_556  S
C15         C236   1.425       .  A
C15          H18   1.083       .  S
C19          C20   1.409       .  A
C19          C24   1.406       .  A
C19          C28   1.524       .  S
C20          C21   1.428       .  A
C20          H25   1.083       .  S
C21          C22   1.393       .  A
C21          C52   1.484       .  S
C22          C23   1.394       .  A
C22          H26   1.083       .  S
C23          C24   1.427       .  A
C23         C192   1.481       .  S
C24          H27   1.083       .  S
C28          C29   1.406       .  A
C28          C33   1.410       .  A
C29          C30   1.425       .  A
C29          H34   1.083       .  S
C30          C31   1.395       .  A
C30         C143   1.483       .  S
C31          C32   1.395       .  A
C31          H35   1.082       .  S
C32          C33   1.430       .  A
C32          C87   1.487       .  S
C33          H36   1.083       .  S
O37         Cu45   2.041   1_554  S
O37          C47   1.278       .  A
O38        Cu489   2.044   1_545  S
O38          C48   1.280       .  A
O39        Cu267   2.001       .  S
O39          C49   1.280       .  A
O40         Cu45   2.016   1_554  S
O40          C50   1.283       .  A
O41         Cu46   1.952   1_554  S
O41          C50   1.264       .  A
O42        Cu268   1.935       .  S
O42          C49   1.262       .  A
O43        Cu490   2.063   1_545  S
O43          C48   1.286       .  A
O44         Cu46   2.060   1_554  S
O44          C47   1.286       .  A
Cu45        O482   2.044       .  S
Cu45        O261   2.001       .  S
Cu45        Cu46   2.364       .  S
Cu46        O264   1.935       .  S
Cu46        O487   2.064       .  S
C47         N198   1.464       .  S
C48          N58   1.467       .  S
C49         C195   1.448       .  S
C50          C55   1.456       .  S
N51         C117   1.473       .  S
N51          C55   1.365       .  A
N51          C52   1.372       .  A
C52          C53   1.388       .  A
C53          C54   1.355       .  A
C53          H56   1.083       .  S
C54          C55   1.372       .  A
C54          H57   1.083       .  S
N58          C62   1.363   1_556  A
N58          C59   1.364   1_556  A
C59          C60   1.386       .  A
C60          C61   1.348       .  A
C60          H63   1.084       .  S
C61          C62   1.376       .  A
C61          H64   1.083       .  S
C62         C133   1.449   1_554  S
O65        Cu961   2.058       .  S
O65          C75   1.287       .  A
O66         Cu73   2.058       .  S
O66          C76   1.287       .  A
O67        Cu517   1.955   1_445  S
O67          C77   1.264       .  A
O68         Cu73   1.955   1_655  S
O68          C78   1.264       .  A
O69        Cu962   2.013   1_655  S
O69          C78   1.283       .  A
O70       Cu1406   2.013   1_545  S
O70          C77   1.283       .  A
O71        Cu962   2.053       .  S
O71          C76   1.279       .  A
O72         Cu74   2.050       .  S
O72          C75   1.279       .  A
Cu73        O953   2.058   1_455  S
Cu73        O511   1.958       .  S
Cu73       Cu962   2.356       .  S
Cu74        O957   2.013       .  S
Cu74       O1402   2.013       .  S
Cu74        O959   2.053       .  S
Cu74       Cu961   2.356       .  S
C75         N191   1.470       .  S
C76          N86   1.471       .  S
C77          C83   1.463       .  S
C78         C188   1.463       .  S
N79         C132   1.461       .  S
N79          C83   1.358       .  A
N79          C80   1.362       .  A
C80          C81   1.391       .  A
C80         C207   1.488       .  S
C81          C82   1.364       .  A
C81          H84   1.083       .  S
C82          C83   1.373       .  A
C82          H85   1.082       .  S
N86          C90   1.360       .  A
N86          C87   1.372       .  A
C87          C88   1.388       .  A
C88          C89   1.356       .  A
C88          H91   1.083       .  S
C89          C90   1.372       .  A
C89          H92   1.083       .  S
C90         C106   1.450       .  S
O93        Cu545   2.060   1_544  S
O93         C103   1.286       .  A
O94        Cu101   2.063       .  S
O94         C104   1.286       .  A
O95        Cu101   1.957   1_554  S
O95         C105   1.265       .  A
O96        Cu323   1.944       .  S
O96         C106   1.264       .  A
O97        Cu324   2.000       .  S
O97         C106   1.279       .  A
O98        Cu102   2.015   1_554  S
O98         C105   1.282       .  A
O99        Cu102   2.044       .  S
O99         C104   1.280       .  A
O100       Cu546   2.041   1_544  S
O100        C103   1.278       .  A
Cu101       O537   2.058   1_556  S
Cu101       O318   1.944       .  S
Cu101      Cu102   2.364       .  S
Cu102       O319   2.000       .  S
Cu102       O544   2.039   1_556  S
C103        N149   1.464       .  S
C104        N177   1.467       .  S
C105        C146   1.458       .  S
O107      Cu1003   2.070       .  S
O107        C117   1.284       .  A
O108       Cu115   2.066       .  S
O108        C118   1.283       .  A
O109       Cu559   1.991   1_545  S
O109       C1007   1.278       .  A
O110      Cu1003   1.991       .  S
O110       C1008   1.278       .  A
O111       Cu116   1.960       .  S
O111       C1008   1.267       .  A
O112      Cu1448   1.960   1_545  S
O112       C1007   1.267       .  A
O113      Cu1004   2.049       .  S
O113        C118   1.283       .  A
O114       Cu116   2.054       .  S
O114        C117   1.285       .  A
Cu115       O995   2.070   1_455  S
Cu115       O553   1.988   1_455  S
Cu115       O998   1.991       .  S
Cu115     Cu1004   2.359       .  S
Cu116      O1444   1.955       .  S
Cu116      O1001   2.049       .  S
Cu116     Cu1003   2.359       .  S
C118        N142   1.470       .  S
C119       C1027   1.457       .  S
C119        O997   1.278       .  A
C119       O1000   1.267       .  A
C120        C174   1.457       .  S
C120        O998   1.278       .  A
C120        O999   1.267       .  A
O121      Cu1017   2.025   1_655  S
O121        C131   1.277       .  A
O122       Cu351   2.043       .  S
O122       C1020   1.280       .  A
O123       Cu129   1.972   1_556  S
O123        C133   1.278       .  A
O124      Cu1017   1.981       .  S
O124        C134   1.278       .  A
O125       Cu130   1.960   1_455  S
O125        C134   1.267       .  A
O126      Cu1018   1.956   1_556  S
O126        C133   1.265       .  A
O127       Cu352   2.042   1_455  S
O127        C132   1.282       .  A
O128       Cu130   2.037       .  S
O128        C131   1.283       .  A
Cu129      O1009   2.025       .  S
Cu129       O344   2.043   1_554  S
Cu129      O1012   1.981       .  S
Cu129     Cu1018   2.367       .  S
Cu130      O1014   1.956   1_554  S
Cu130       O349   2.042   1_654  S
Cu130     Cu1017   2.367   1_655  S
C131        N135   1.455       .  S
C132       O1010   1.280       .  A
C134        C153   1.453       .  S
N135        C139   1.351       .  A
N135       C1024   1.361       .  A
C136        C137   1.391       .  A
C136        C216   1.486       .  S
C136       N1023   1.361       .  A
C137        C138   1.365       .  A
C137        H140   1.083       .  S
C138       C1027   1.374       .  A
C138        H141   1.082       .  S
C139       C1026   1.374       .  A
C139       C1007   1.457       .  S
N142        C146   1.365       .  A
N142        C143   1.370       .  A
C143        C144   1.388       .  A
C144        C145   1.356       .  A
C144        H147   1.083       .  S
C145        C146   1.372       .  A
C145        H148   1.083       .  S
N149        C153   1.354       .  A
N149        C150   1.364       .  A
C150        C151   1.387       .  A
C151        C152   1.359       .  A
C151        H154   1.084       .  S
C152        C153   1.376       .  A
C152        H155   1.083       .  S
O156      Cu1052   2.037       .  S
O156        C166   1.283       .  A
O157       Cu386   2.042       .  S
O157       C1055   1.282       .  A
O158       Cu164   1.960       .  S
O158        C168   1.267       .  A
O159      Cu1052   1.956   1_556  S
O159        C169   1.265       .  A
O160       Cu165   1.972   1_456  S
O160        C169   1.278       .  A
O161      Cu1053   1.981       .  S
O161        C168   1.278       .  A
O162       Cu387   2.043       .  S
O162        C167   1.280       .  A
O163       Cu165   2.026   1_455  S
O163        C166   1.277       .  A
Cu164      O1044   2.037       .  S
Cu164       O379   2.042   1_554  S
Cu164      O1047   1.956   1_554  S
Cu164     Cu1053   2.367       .  S
Cu165      O1049   1.981       .  S
Cu165       O384   2.043   1_554  S
Cu165     Cu1052   2.367   1_655  S
C166        N170   1.455       .  S
C167       O1045   1.282       .  A
C167        N184   1.461       .  S
C168        C202   1.452       .  S
C169        C181   1.449   1_556  S
N170        C174   1.351       .  A
N170        C171   1.361       .  A
C171        C172   1.391       .  A
C171       C1106   1.486       .  S
C172        C173   1.365       .  A
C172        H175   1.083       .  S
C173        C174   1.374       .  A
C173        H176   1.082       .  S
N177        C181   1.363   1_556  A
N177        C178   1.364   1_556  A
C178        C179   1.386       .  A
C179        C180   1.348       .  A
C179        H182   1.084       .  S
C180        C181   1.376       .  A
C180        H183   1.083       .  S
N184        C188   1.358       .  A
N184        C185   1.362       .  A
C185       C1074   1.391       .  A
C185        C209   1.488       .  S
C186        C187   1.364       .  A
C186       C1073   1.391       .  A
C186        H189   1.083       .  S
C187       C1076   1.373       .  A
C187        H190   1.082       .  S
C188       C1075   1.373       .  A
N191        C195   1.360       .  A
N191        C192   1.369       .  A
C192        C193   1.388       .  A
C193        C194   1.357       .  A
C193        H196   1.084       .  S
C194        C195   1.372       .  A
C194        H197   1.083       .  S
N198        C202   1.354       .  A
N198        C199   1.364       .  A
C199        C200   1.387       .  A
C200        C201   1.359       .  A
C200        H203   1.084       .  S
C201        C202   1.376       .  A
C201        H204   1.083       .  S
C205        C206   1.393   1_655  A
C205        C210   1.393       .  A
C205       C1102   1.492       .  S
C206        C207   1.421       .  A
C206        H211   1.083       .  S
C207        C208   1.403   1_455  A
C208        C209   1.403       .  A
C208        H212   1.080       .  S
C209        C210   1.421       .  A
C210        H213   1.083       .  S
C214        C215   1.394       .  A
C214        C219   1.394       .  A
C214       C1093   1.492       .  S
C215        C216   1.420       .  A
C215        H220   1.083       .  S
C216        C217   1.401       .  A
C217        C218   1.401       .  A
C217        H221   1.079       .  S
C218        C219   1.421       .  A
C218       C1059   1.486       .  S
C219        H222   1.083       .  S
C223        C224   1.413       .  A
C223        C228   1.415       .  A
C223        C232   1.535       .  S
C224        H229   1.083       .  S
C225        C226   1.392       .  A
C225        C400   1.472       .  S
C226        C227   1.389       .  A
C226        H230   1.085       .  S
C227        C421   1.484       .  S
C228        H231   1.082       .  S
C232        C233   1.415       .  A
C232        C237   1.413       .  A
C233        H238   1.082       .  S
C234        C235   1.389       .  A
C234        C372   1.484       .  S
C235        C236   1.392       .  A
C235        H239   1.085       .  S
C236        C281   1.472       .  S
C237        H240   1.083       .  S
C241        C242   1.409       .  A
C241        C246   1.406       .  A
C241        C250   1.524       .  S
C242        C243   1.428       .  A
C242        H247   1.083       .  S
C243        C244   1.393       .  A
C243        C274   1.484       .  S
C244        C245   1.394       .  A
C244        H248   1.083       .  S
C245        C246   1.427       .  A
C245        C414   1.481       .  S
C246        H249   1.083       .  S
C250        C251   1.406       .  A
C250        C255   1.410       .  A
C251        C252   1.425       .  A
C251        H256   1.083       .  S
C252        C253   1.395       .  A
C252        C365   1.483       .  S
C253        C254   1.395       .  A
C253        H257   1.082       .  S
C254        C255   1.430       .  A
C254        C309   1.487       .  S
C255        H258   1.083       .  S
O259       Cu267   2.041       .  S
O259        C269   1.278       .  A
O260       Cu711   2.044   1_545  S
O260        C270   1.280       .  A
O261        C271   1.280       .  A
O262       Cu267   2.016       .  S
O262        C272   1.283       .  A
O263       Cu268   1.952       .  S
O263        C272   1.264       .  A
O264        C271   1.262       .  A
O265       Cu712   2.063   1_545  S
O265        C270   1.286       .  A
O266       Cu268   2.060       .  S
O266        C269   1.286       .  A
Cu267       O704   2.044       .  S
Cu267      Cu268   2.364       .  S
Cu268       O709   2.064       .  S
C269        N420   1.464       .  S
C270        N280   1.467       .  S
C271        C417   1.448       .  S
C272        C277   1.456       .  S
N273        C339   1.473       .  S
N273        C277   1.365       .  A
N273        C274   1.372       .  A
C274        C275   1.388       .  A
C275        C276   1.355       .  A
C275        H278   1.083       .  S
C276        C277   1.372       .  A
C276        H279   1.083       .  S
N280        C284   1.363       .  A
N280        C281   1.364       .  A
C281        C282   1.386       .  A
C282        C283   1.348       .  A
C282        H285   1.084       .  S
C283        C284   1.376       .  A
C283        H286   1.083       .  S
C284        C355   1.449       .  S
O287      Cu1183   2.058       .  S
O287        C297   1.287       .  A
O288       Cu295   2.058       .  S
O288        C298   1.287       .  A
O289       Cu739   1.955   1_445  S
O289        C299   1.264       .  A
O290       Cu295   1.955   1_655  S
O290        C300   1.264       .  A
O291      Cu1184   2.013   1_655  S
O291        C300   1.283       .  A
O292      Cu1628   2.013   1_545  S
O292        C299   1.283       .  A
O293      Cu1184   2.053       .  S
O293        C298   1.279       .  A
O294       Cu296   2.050       .  S
O294        C297   1.279       .  A
Cu295      O1175   2.058   1_455  S
Cu295       O733   1.958       .  S
Cu295     Cu1184   2.356       .  S
Cu296      O1179   2.013       .  S
Cu296      O1624   2.013       .  S
Cu296      O1181   2.053       .  S
Cu296     Cu1183   2.356       .  S
C297        N413   1.470       .  S
C298        N308   1.471       .  S
C299        C305   1.463       .  S
C300        C410   1.463       .  S
N301        C354   1.460       .  S
N301        C305   1.358       .  A
N301        C302   1.362       .  A
C302        C303   1.391       .  A
C302        C429   1.488       .  S
C303        C304   1.364       .  A
C303        H306   1.083       .  S
C304        C305   1.373       .  A
C304        H307   1.082       .  S
N308        C312   1.360       .  A
N308        C309   1.372       .  A
C309        C310   1.388       .  A
C310        C311   1.356       .  A
C310        H313   1.083       .  S
C311        C312   1.372       .  A
C311        H314   1.083       .  S
C312        C328   1.450       .  S
O315       Cu767   2.060   1_545  S
O315        C325   1.286       .  A
O316       Cu323   2.063       .  S
O316        C326   1.286       .  A
O317       Cu323   1.957       .  S
O317        C327   1.265       .  A
O318        C328   1.264       .  A
O319        C328   1.279       .  A
O320       Cu324   2.015       .  S
O320        C327   1.282       .  A
O321       Cu324   2.044       .  S
O321        C326   1.280       .  A
O322       Cu768   2.041   1_545  S
O322        C325   1.278       .  A
Cu323       O759   2.058       .  S
Cu323      Cu324   2.364       .  S
Cu324       O766   2.039       .  S
C325        N371   1.464       .  S
C326        N399   1.467       .  S
C327        C368   1.458       .  S
O329      Cu1225   2.070       .  S
O329        C339   1.284       .  A
O330       Cu337   2.066       .  S
O330        C340   1.283       .  A
O331       Cu781   1.991   1_545  S
O331       C1229   1.278       .  A
O332      Cu1225   1.991       .  S
O332       C1230   1.278       .  A
O333       Cu338   1.960       .  S
O333       C1230   1.267       .  A
O334      Cu1670   1.960   1_545  S
O334       C1229   1.267       .  A
O335      Cu1226   2.049       .  S
O335        C340   1.283       .  A
O336       Cu338   2.054       .  S
O336        C339   1.285       .  A
Cu337      O1217   2.070   1_455  S
Cu337       O775   1.988   1_455  S
Cu337      O1220   1.991       .  S
Cu337     Cu1226   2.359       .  S
Cu338      O1666   1.955       .  S
Cu338      O1223   2.049       .  S
Cu338     Cu1225   2.359       .  S
C340        N364   1.470       .  S
C341       C1249   1.457       .  S
C341       O1219   1.278       .  A
C341       O1222   1.267       .  A
C342        C396   1.457       .  S
C342       O1220   1.278       .  A
C342       O1221   1.267       .  A
O343      Cu1239   2.025   1_655  S
O343        C353   1.277       .  A
O344       C1242   1.280       .  A
O345       Cu351   1.972       .  S
O345        C355   1.278       .  A
O346      Cu1239   1.981       .  S
O346        C356   1.278       .  A
O347       Cu352   1.960   1_455  S
O347        C356   1.267       .  A
O348      Cu1240   1.956       .  S
O348        C355   1.265       .  A
O349        C354   1.282       .  A
O350       Cu352   2.037       .  S
O350        C353   1.283       .  A
Cu351      O1231   2.025       .  S
Cu351      O1234   1.981       .  S
Cu351     Cu1240   2.367       .  S
Cu352      O1236   1.956       .  S
Cu352     Cu1239   2.367   1_655  S
C353        N357   1.455       .  S
C354       O1232   1.280       .  A
C356        C375   1.453       .  S
N357        C361   1.351       .  A
N357       C1246   1.361       .  A
C358        C359   1.391       .  A
C358        C438   1.486       .  S
C358       N1245   1.361       .  A
C359        C360   1.365       .  A
C359        H362   1.083       .  S
C360       C1249   1.374       .  A
C360        H363   1.082       .  S
C361       C1248   1.374       .  A
C361       C1229   1.457       .  S
N364        C368   1.365       .  A
N364        C365   1.370       .  A
C365        C366   1.388       .  A
C366        C367   1.356       .  A
C366        H369   1.083       .  S
C367        C368   1.372       .  A
C367        H370   1.083       .  S
N371        C375   1.354       .  A
N371        C372   1.364       .  A
C372        C373   1.387       .  A
C373        C374   1.359       .  A
C373        H376   1.084       .  S
C374        C375   1.376       .  A
C374        H377   1.083       .  S
O378      Cu1274   2.037       .  S
O378        C388   1.283       .  A
O379       C1277   1.282       .  A
O380       Cu386   1.960       .  S
O380        C390   1.267       .  A
O381      Cu1274   1.956       .  S
O381        C391   1.265       .  A
O382       Cu387   1.972   1_455  S
O382        C391   1.278       .  A
O383      Cu1275   1.981       .  S
O383        C390   1.278       .  A
O384        C389   1.280       .  A
O385       Cu387   2.026   1_455  S
O385        C388   1.277       .  A
Cu386      O1266   2.037       .  S
Cu386      O1269   1.956       .  S
Cu386     Cu1275   2.367       .  S
Cu387      O1271   1.981       .  S
Cu387     Cu1274   2.367   1_655  S
C388        N392   1.455       .  S
C389       O1267   1.282       .  A
C389        N406   1.461       .  S
C390        C424   1.452       .  S
C391        C403   1.449       .  S
N392        C396   1.351       .  A
N392        C393   1.361       .  A
C393        C394   1.391       .  A
C393       C1328   1.486       .  S
C394        C395   1.365       .  A
C394        H397   1.083       .  S
C395        C396   1.374       .  A
C395        H398   1.082       .  S
N399        C403   1.363       .  A
N399        C400   1.364       .  A
C400        C401   1.386       .  A
C401        C402   1.348       .  A
C401        H404   1.084       .  S
C402        C403   1.376       .  A
C402        H405   1.083       .  S
N406        C410   1.358       .  A
N406        C407   1.362       .  A
C407       C1296   1.391       .  A
C407        C431   1.488       .  S
C408       C1295   1.391       .  A
C408        C409   1.364       .  A
C408        H411   1.083       .  S
C409       C1298   1.373       .  A
C409        H412   1.082       .  S
C410       C1297   1.373       .  A
N413        C417   1.360       .  A
N413        C414   1.369       .  A
C414        C415   1.388       .  A
C415        C416   1.357       .  A
C415        H418   1.084       .  S
C416        C417   1.372       .  A
C416        H419   1.083       .  S
N420        C424   1.354       .  A
N420        C421   1.364       .  A
C421        C422   1.387       .  A
C422        C423   1.359       .  A
C422        H425   1.084       .  S
C423        C424   1.376       .  A
C423        H426   1.083       .  S
C427        C428   1.393       .  A
C427        C432   1.393   1_455  A
C427       C1324   1.492       .  S
C428        C429   1.421       .  A
C428        H433   1.083       .  S
C429        C430   1.403   1_455  A
C430        C431   1.403       .  A
C430        H434   1.080       .  S
C431        C432   1.421       .  A
C432        H435   1.083       .  S
C436        C437   1.394       .  A
C436        C441   1.394       .  A
C436       C1315   1.492       .  S
C437        C438   1.420       .  A
C437        H442   1.083       .  S
C438        C439   1.401       .  A
C439        C440   1.401       .  A
C439        H443   1.079       .  S
C440        C441   1.421       .  A
C440       C1281   1.486       .  S
C441        H444   1.083       .  S
C445        C446   1.416       .  A
C445        C450   1.414       .  A
C445        C454   1.537       .  S
C446        C669   1.425       .  A
C446        H451   1.083       .  S
C447        C668   1.425       .  A
C447        C448   1.392       .  A
C447        C622   1.473   1_556  S
C448        C449   1.389       .  A
C448        H452   1.085   1_556  S
C449        C672   1.423       .  A
C449        C643   1.480   1_556  S
C450        C671   1.423       .  A
C450        H453   1.082       .  S
C454        C455   1.414       .  A
C454        C459   1.416       .  A
C455        C678   1.423       .  A
C455        H460   1.082       .  S
C456        C677   1.423       .  A
C456        C457   1.389       .  A
C456        C594   1.480   1_556  S
C457        C458   1.392       .  A
C457        H461   1.085   1_556  S
C458        C681   1.425       .  A
C458        C503   1.473   1_556  S
C459        C680   1.425       .  A
C459        H462   1.083       .  S
C463        C464   1.406   1_565  A
C463        C468   1.410       .  A
C463        C472   1.524       .  S
C464        C465   1.425       .  A
C464        H469   1.083       .  S
C465        C466   1.395   1_545  A
C465        C496   1.483       .  S
C466        C467   1.395       .  A
C466        H470   1.082       .  S
C467        C468   1.430       .  A
C467        C636   1.487       .  S
C468        H471   1.083       .  S
C472        C473   1.409       .  A
C472        C477   1.406   1_565  A
C473        C474   1.428       .  A
C473        H478   1.083       .  S
C474        C475   1.393       .  A
C474        C587   1.484       .  S
C475        C476   1.394   1_565  A
C475        H479   1.083       .  S
C476        C477   1.427       .  A
C476        C531   1.481       .  S
C477        H480   1.083       .  S
O481       Cu489   2.039   1_554  S
O481        C491   1.278       .  A
O482        C492   1.279       .  A
O483       Cu711   2.000       .  S
O483        C493   1.279       .  A
O484       Cu489   2.014   1_544  S
O484        C494   1.282       .  A
O485       Cu490   1.957   1_544  S
O485        C494   1.265       .  A
O486       Cu712   1.944       .  S
O486        C493   1.264       .  A
O487        C492   1.286       .  A
O488       Cu490   2.058   1_554  S
O488        C491   1.286       .  A
Cu489       O705   2.000       .  S
Cu489      Cu490   2.364       .  S
Cu490       O708   1.944       .  S
C491        N642   1.463       .  S
C492        N502   1.467       .  S
C493        C639   1.450       .  S
C494        C499   1.458       .  S
N495        C561   1.470   1_545  S
N495        C499   1.365       .  A
N495        C496   1.370       .  A
C496        C497   1.388       .  A
C497        C498   1.356       .  A
C497        H500   1.083       .  S
C498        C499   1.372       .  A
C498        H501   1.083       .  S
N502        C506   1.363   1_556  A
N502        C503   1.365   1_556  A
C503        C504   1.385       .  A
C504        C505   1.348       .  A
C504        H507   1.083       .  S
C505        C506   1.376       .  A
C505        H508   1.083       .  S
C506        C577   1.449   1_554  S
O509      Cu1405   2.058       .  S
O509        C519   1.287       .  A
O510       Cu517   2.058   1_455  S
O510        C520   1.287       .  A
O511        C521   1.265       .  A
O512       Cu517   1.958       .  S
O512        C522   1.264       .  A
O513      Cu1406   2.013   1_655  S
O513        C522   1.283       .  A
O514       Cu962   2.013       .  S
O514        C521   1.283       .  A
O515      Cu1406   2.050       .  S
O515        C520   1.279       .  A
O516       Cu518   2.053       .  S
O516        C519   1.279       .  A
Cu517      O1397   2.058       .  S
Cu517     Cu1406   2.356   1_655  S
Cu518      O1401   2.013       .  S
Cu518       O958   2.013   1_565  S
Cu518      O1403   2.050       .  S
Cu518     Cu1405   2.356       .  S
C519        N635   1.471       .  S
C520        N530   1.470   1_565  S
C521        C527   1.461       .  S
C522        C632   1.461       .  S
N523        C576   1.458       .  S
N523        C527   1.355       .  A
N523        C524   1.360       .  A
C524        C525   1.390       .  A
C524        C651   1.483       .  S
C525        C526   1.364       .  A
C525        H528   1.083       .  S
C526        C527   1.373       .  A
C526        H529   1.081       .  S
N530        C534   1.360       .  A
N530        C531   1.369       .  A
C531        C532   1.388       .  A
C532        C533   1.357       .  A
C532        H535   1.084       .  S
C533        C534   1.372       .  A
C533        H536   1.083       .  S
C534        C550   1.448       .  S
O537        C547   1.286       .  A
O538       Cu545   2.063       .  S
O538        C548   1.286       .  A
O539       Cu545   1.953   1_554  S
O539        C549   1.264       .  A
O540       Cu767   1.935   1_545  S
O540        C550   1.262       .  A
O541       Cu768   2.001   1_545  S
O541        C550   1.280       .  A
O542       Cu546   2.017   1_554  S
O542        C549   1.283       .  A
O543       Cu546   2.044       .  S
O543        C548   1.279       .  A
O544        C547   1.278       .  A
Cu545       O762   1.935   1_565  S
Cu545      Cu546   2.364       .  S
Cu546       O763   2.001   1_565  S
C547        N593   1.463       .  S
C548        N621   1.467       .  S
C549        C590   1.456       .  S
O551      Cu1447   2.066       .  S
O551        C561   1.283       .  A
O552       Cu559   2.070   1_445  S
O552        C562   1.284   1_545  A
O553       C1451   1.277       .  A
O554      Cu1447   1.987       .  S
O554       C1452   1.277       .  A
O555       Cu560   1.955       .  S
O555       C1452   1.267       .  A
O556      Cu1004   1.955   1_655  S
O556       C1451   1.267       .  A
O557      Cu1448   2.054   1_455  S
O557        C562   1.285       .  A
O558       Cu560   2.049       .  S
O558        C561   1.283       .  A
Cu559      O1439   2.066       .  S
Cu559      O1442   1.987   1_655  S
Cu559     Cu1448   2.360       .  S
Cu560      O1000   1.960   1_565  S
Cu560      O1445   2.054       .  S
Cu560     Cu1447   2.360       .  S
C562        N586   1.473       .  S
C563       C1471   1.456       .  S
C563       O1441   1.277       .  A
C563       O1444   1.267       .  A
C564        C618   1.456       .  S
C564       O1442   1.277       .  A
C564       O1443   1.267       .  A
O565      Cu1461   2.027   1_655  S
O565        C575   1.277       .  A
O566       Cu795   2.041       .  S
O566       C1464   1.281       .  A
O567       Cu573   1.969   1_556  S
O567        C577   1.277       .  A
O568      Cu1461   1.975       .  S
O568        C578   1.277       .  A
O569       Cu574   1.961       .  S
O569        C578   1.267       .  A
O570      Cu1462   1.959   1_556  S
O570        C577   1.266       .  A
O571       Cu796   2.038       .  S
O571        C576   1.282       .  A
O572       Cu574   2.030   1_655  S
O572        C575   1.282       .  A
Cu573      O1453   2.027       .  S
Cu573       O788   2.041   1_554  S
Cu573      O1456   1.975       .  S
Cu573     Cu1462   2.367       .  S
Cu574      O1458   1.959   1_454  S
Cu574       O793   2.038   1_554  S
Cu574     Cu1461   2.367       .  S
C575        N579   1.455       .  S
C576       O1454   1.281       .  A
C578        C597   1.451       .  S
N579        C583   1.352       .  A
N579       C1468   1.361       .  A
C580        C581   1.390       .  A
C580        C660   1.484       .  S
C580       N1467   1.361       .  A
C581        C582   1.364       .  A
C581        H584   1.083       .  S
C582       C1471   1.373       .  A
C582        H585   1.081       .  S
C583       C1470   1.373       .  A
C583       C1451   1.456       .  S
N586        C590   1.365       .  A
N586        C587   1.372       .  A
C587        C588   1.388       .  A
C588        C589   1.355       .  A
C588        H591   1.083       .  S
C589        C590   1.372       .  A
C589        H592   1.083       .  S
N593        C597   1.354       .  A
N593        C594   1.362       .  A
C594        C595   1.387       .  A
C595        C596   1.359       .  A
C595        H598   1.083       .  S
C596        C597   1.377       .  A
C596        H599   1.083       .  S
O600      Cu1496   2.030   1_455  S
O600        C610   1.282       .  A
O601       Cu830   2.039       .  S
O601       C1499   1.282       .  A
O602       Cu608   1.960       .  S
O602        C612   1.267       .  A
O603      Cu1496   1.959   1_456  S
O603        C613   1.266       .  A
O604       Cu609   1.969   1_456  S
O604        C613   1.277       .  A
O605      Cu1497   1.975       .  S
O605        C612   1.277       .  A
O606       Cu831   2.041       .  S
O606        C611   1.281       .  A
O607       Cu609   2.027   1_455  S
O607        C610   1.277       .  A
Cu608      O1488   2.030       .  S
Cu608       O823   2.039   1_554  S
Cu608      O1491   1.959   1_554  S
Cu608     Cu1497   2.367       .  S
Cu609      O1493   1.975       .  S
Cu609       O828   2.041   1_554  S
Cu609     Cu1496   2.367       .  S
C610        N614   1.455       .  S
C611       O1489   1.282       .  A
C611        N628   1.458       .  S
C612        C646   1.451       .  S
C613        C625   1.449   1_556  S
N614        C618   1.352       .  A
N614        C615   1.361       .  A
C615        C616   1.390       .  A
C615       C1550   1.484       .  S
C616        C617   1.363       .  A
C616        H619   1.083       .  S
C617        C618   1.373       .  A
C617        H620   1.081       .  S
N621        C625   1.363   1_556  A
N621        C622   1.365   1_556  A
C622        C623   1.385       .  A
C623        C624   1.348       .  A
C623        H626   1.083       .  S
C624        C625   1.376       .  A
C624        H627   1.083       .  S
N628        C632   1.356       .  A
N628        C629   1.360       .  A
C629       C1518   1.390       .  A
C629        C653   1.484       .  S
C630       C1517   1.390       .  A
C630        C631   1.364       .  A
C630        H633   1.083       .  S
C631       C1520   1.373       .  A
C631        H634   1.081       .  S
C632       C1519   1.373       .  A
N635        C639   1.360       .  A
N635        C636   1.372       .  A
C636        C637   1.388       .  A
C637        C638   1.356       .  A
C637        H640   1.083       .  S
C638        C639   1.372       .  A
C638        H641   1.083       .  S
N642        C646   1.354       .  A
N642        C643   1.362       .  A
C643        C644   1.387       .  A
C644        C645   1.359       .  A
C644        H647   1.083       .  S
C645        C646   1.377       .  A
C645        H648   1.083       .  S
C649        C650   1.392       .  A
C649        C654   1.392   1_455  A
C649       C1546   1.488       .  S
C650        C651   1.420       .  A
C650        H655   1.083       .  S
C651        C652   1.399       .  A
C652        C653   1.400   1_455  A
C652        H656   1.080       .  S
C653        C654   1.420       .  A
C654        H657   1.083       .  S
C658        C659   1.393       .  A
C658        C663   1.393       .  A
C658       C1537   1.488       .  S
C659        C660   1.420       .  A
C659        H664   1.083       .  S
C660        C661   1.399       .  A
C661        C662   1.399       .  A
C661        H665   1.078       .  S
C662        C663   1.420       .  A
C662       C1503   1.484       .  S
C663        H666   1.083       .  S
C667        C668   1.416       .  A
C667        C672   1.414       .  A
C667        C676   1.537       .  S
C668        H673   1.083       .  S
C669        C670   1.392       .  A
C669        C844   1.473       .  S
C670        C671   1.389       .  A
C670        H674   1.085       .  S
C671        C865   1.480       .  S
C672        H675   1.082       .  S
C676        C677   1.414       .  A
C676        C681   1.416       .  A
C677        H682   1.082       .  S
C678        C679   1.389       .  A
C678        C816   1.480       .  S
C679        C680   1.392       .  A
C679        H683   1.085       .  S
C680        C725   1.473       .  S
C681        H684   1.083       .  S
C685        C686   1.406   1_565  A
C685        C690   1.410       .  A
C685        C694   1.524       .  S
C686        C687   1.425       .  A
C686        H691   1.083       .  S
C687        C688   1.395   1_545  A
C687        C718   1.483       .  S
C688        C689   1.395       .  A
C688        H692   1.082       .  S
C689        C690   1.430       .  A
C689        C858   1.487       .  S
C690        H693   1.083       .  S
C694        C695   1.409       .  A
C694        C699   1.406   1_565  A
C695        C696   1.428       .  A
C695        H700   1.083       .  S
C696        C697   1.393       .  A
C696        C809   1.484       .  S
C697        C698   1.394   1_565  A
C697        H701   1.082       .  S
C698        C699   1.427       .  A
C698        C753   1.481       .  S
C699        H702   1.083       .  S
O703       Cu711   2.039       .  S
O703        C713   1.278       .  A
O704        C714   1.279       .  A
O705        C715   1.279       .  A
O706       Cu711   2.014   1_545  S
O706        C716   1.282       .  A
O707       Cu712   1.957   1_545  S
O707        C716   1.265       .  A
O708        C715   1.264       .  A
O709        C714   1.286       .  A
O710       Cu712   2.058       .  S
O710        C713   1.286       .  A
Cu711      Cu712   2.364       .  S
C713        N864   1.463       .  S
C714        N724   1.467       .  S
C715        C861   1.450       .  S
C716        C721   1.458       .  S
N717        C783   1.470   1_545  S
N717        C721   1.365       .  A
N717        C718   1.370       .  A
C718        C719   1.388       .  A
C719        C720   1.356       .  A
C719        H722   1.083       .  S
C720        C721   1.372       .  A
C720        H723   1.083       .  S
N724        C728   1.363       .  A
N724        C725   1.365       .  A
C725        C726   1.385       .  A
C726        C727   1.348       .  A
C726        H729   1.083       .  S
C727        C728   1.376       .  A
C727        H730   1.083       .  S
C728        C799   1.449       .  S
O731      Cu1627   2.058       .  S
O731        C741   1.287       .  A
O732       Cu739   2.058   1_455  S
O732        C742   1.287       .  A
O733        C743   1.265       .  A
O734       Cu739   1.958       .  S
O734        C744   1.264       .  A
O735      Cu1628   2.013   1_655  S
O735        C744   1.283       .  A
O736      Cu1184   2.013       .  S
O736        C743   1.283       .  A
O737      Cu1628   2.050       .  S
O737        C742   1.279       .  A
O738       Cu740   2.053       .  S
O738        C741   1.279       .  A
Cu739      O1619   2.058       .  S
Cu739     Cu1628   2.356   1_655  S
Cu740      O1623   2.013       .  S
Cu740      O1180   2.013   1_565  S
Cu740      O1625   2.050       .  S
Cu740     Cu1627   2.356       .  S
C741        N857   1.471       .  S
C742        N752   1.470   1_565  S
C743        C749   1.461       .  S
C744        C854   1.461       .  S
N745        C798   1.458       .  S
N745        C749   1.355       .  A
N745        C746   1.360       .  A
C746        C747   1.390       .  A
C746        C873   1.483       .  S
C747        C748   1.364       .  A
C747        H750   1.083       .  S
C748        C749   1.373       .  A
C748        H751   1.081       .  S
N752        C756   1.360       .  A
N752        C753   1.369       .  A
C753        C754   1.388       .  A
C754        C755   1.357       .  A
C754        H757   1.084       .  S
C755        C756   1.372       .  A
C755        H758   1.083       .  S
C756        C772   1.448       .  S
O759        C769   1.286       .  A
O760       Cu767   2.063       .  S
O760        C770   1.286       .  A
O761       Cu767   1.953       .  S
O761        C771   1.264       .  A
O762        C772   1.262       .  A
O763        C772   1.280       .  A
O764       Cu768   2.017       .  S
O764        C771   1.283       .  A
O765       Cu768   2.044       .  S
O765        C770   1.279       .  A
O766        C769   1.278       .  A
Cu767      Cu768   2.364       .  S
C769        N815   1.463       .  S
C770        N843   1.467       .  S
C771        C812   1.456       .  S
O773      Cu1669   2.066       .  S
O773        C783   1.283       .  A
O774       Cu781   2.070   1_445  S
O774        C784   1.284   1_545  A
O775       C1673   1.277       .  A
O776      Cu1669   1.987       .  S
O776       C1674   1.277       .  A
O777       Cu782   1.955       .  S
O777       C1674   1.267       .  A
O778      Cu1226   1.955   1_655  S
O778       C1673   1.267       .  A
O779      Cu1670   2.054   1_455  S
O779        C784   1.285       .  A
O780       Cu782   2.049       .  S
O780        C783   1.283       .  A
Cu781      O1661   2.066       .  S
Cu781      O1664   1.987   1_655  S
Cu781     Cu1670   2.360       .  S
Cu782      O1222   1.960   1_565  S
Cu782      O1667   2.054       .  S
Cu782     Cu1669   2.360       .  S
C784        N808   1.473       .  S
C785       C1693   1.456       .  S
C785       O1663   1.277       .  A
C785       O1666   1.267       .  A
C786        C840   1.456       .  S
C786       O1664   1.277       .  A
C786       O1665   1.267       .  A
O787      Cu1683   2.027   1_655  S
O787        C797   1.277       .  A
O788       C1686   1.281       .  A
O789       Cu795   1.969       .  S
O789        C799   1.277       .  A
O790      Cu1683   1.975       .  S
O790        C800   1.277       .  A
O791       Cu796   1.961       .  S
O791        C800   1.267       .  A
O792      Cu1684   1.959       .  S
O792        C799   1.266       .  A
O793        C798   1.282       .  A
O794       Cu796   2.030   1_655  S
O794        C797   1.282       .  A
Cu795      O1675   2.027       .  S
Cu795      O1678   1.975       .  S
Cu795     Cu1684   2.367       .  S
Cu796      O1680   1.959   1_455  S
Cu796     Cu1683   2.367       .  S
C797        N801   1.455       .  S
C798       O1676   1.281       .  A
C800        C819   1.451       .  S
N801        C805   1.352       .  A
N801       C1690   1.361       .  A
C802        C803   1.390       .  A
C802        C882   1.484       .  S
C802       N1689   1.361       .  A
C803        C804   1.364       .  A
C803        H806   1.083       .  S
C804       C1693   1.373       .  A
C804        H807   1.081       .  S
C805       C1692   1.373       .  A
C805       C1673   1.456       .  S
N808        C812   1.365       .  A
N808        C809   1.372       .  A
C809        C810   1.388       .  A
C810        C811   1.355       .  A
C810        H813   1.083       .  S
C811        C812   1.372       .  A
C811        H814   1.083       .  S
N815        C819   1.354       .  A
N815        C816   1.362       .  A
C816        C817   1.387       .  A
C817        C818   1.359       .  A
C817        H820   1.083       .  S
C818        C819   1.377       .  A
C818        H821   1.083       .  S
O822      Cu1718   2.030   1_455  S
O822        C832   1.282       .  A
O823       C1721   1.282       .  A
O824       Cu830   1.960       .  S
O824        C834   1.267       .  A
O825      Cu1718   1.959   1_455  S
O825        C835   1.266       .  A
O826       Cu831   1.969   1_455  S
O826        C835   1.277       .  A
O827      Cu1719   1.975       .  S
O827        C834   1.277       .  A
O828        C833   1.281       .  A
O829       Cu831   2.027   1_455  S
O829        C832   1.277       .  A
Cu830      O1710   2.030       .  S
Cu830      O1713   1.959       .  S
Cu830     Cu1719   2.367       .  S
Cu831      O1715   1.975       .  S
Cu831     Cu1718   2.367       .  S
C832        N836   1.455       .  S
C833       O1711   1.282       .  A
C833        N850   1.458       .  S
C834        C868   1.451       .  S
C835        C847   1.449       .  S
N836        C840   1.352       .  A
N836        C837   1.361       .  A
C837        C838   1.390       .  A
C837       C1772   1.484       .  S
C838        C839   1.363       .  A
C838        H841   1.083       .  S
C839        C840   1.373       .  A
C839        H842   1.081       .  S
N843        C847   1.363       .  A
N843        C844   1.365       .  A
C844        C845   1.385       .  A
C845        C846   1.348       .  A
C845        H848   1.083       .  S
C846        C847   1.376       .  A
C846        H849   1.083       .  S
N850        C854   1.356       .  A
N850        C851   1.360       .  A
C851       C1740   1.390       .  A
C851        C875   1.484       .  S
C852       C1739   1.390       .  A
C852        C853   1.364       .  A
C852        H855   1.083       .  S
C853       C1742   1.373       .  A
C853        H856   1.081       .  S
C854       C1741   1.373       .  A
N857        C861   1.360       .  A
N857        C858   1.372       .  A
C858        C859   1.388       .  A
C859        C860   1.356       .  A
C859        H862   1.083       .  S
C860        C861   1.372       .  A
C860        H863   1.083       .  S
N864        C868   1.354       .  A
N864        C865   1.362       .  A
C865        C866   1.387       .  A
C866        C867   1.359       .  A
C866        H869   1.083       .  S
C867        C868   1.377       .  A
C867        H870   1.083       .  S
C871        C872   1.392       .  A
C871        C876   1.392   1_455  A
C871       C1768   1.488       .  S
C872        C873   1.420       .  A
C872        H877   1.083       .  S
C873        C874   1.399       .  A
C874        C875   1.400   1_455  A
C874        H878   1.080       .  S
C875        C876   1.420       .  A
C876        H879   1.083       .  S
C880        C881   1.393       .  A
C880        C885   1.393       .  A
C880       C1759   1.488       .  S
C881        C882   1.420       .  A
C881        H886   1.083       .  S
C882        C883   1.399       .  A
C883        C884   1.399       .  A
C883        H887   1.078       .  S
C884        C885   1.420       .  A
C884       C1725   1.484       .  S
C885        H888   1.083       .  S
C889        C890   1.413       .  A
C889        C894   1.415       .  A
C889        C898   1.535       .  S
C890       C1113   1.425       .  A
C890        H895   1.083       .  S
C891       C1112   1.425       .  A
C891        C892   1.392       .  A
C891       C1066   1.472   1_556  S
C892        C893   1.389       .  A
C892        H896   1.085   1_556  S
C893       C1116   1.426       .  A
C893       C1087   1.484   1_556  S
C894       C1115   1.426       .  A
C894        H897   1.082       .  S
C898        C899   1.415       .  A
C898        C903   1.413       .  A
C899       C1122   1.426       .  A
C899        H904   1.082       .  S
C900       C1121   1.426       .  A
C900        C901   1.389       .  A
C900       C1038   1.484   1_556  S
C901        C902   1.392       .  A
C901        H905   1.085   1_556  S
C902       C1125   1.425       .  A
C902        C947   1.472   1_556  S
C903       C1124   1.425       .  A
C903        H906   1.083       .  S
C907        C908   1.409       .  A
C907        C912   1.406       .  A
C907        C916   1.524       .  S
C908        C909   1.428       .  A
C908        H913   1.083       .  S
C909        C910   1.393       .  A
C909        C940   1.484       .  S
C910        C911   1.394       .  A
C910        H914   1.082       .  S
C911        C912   1.427       .  A
C911       C1080   1.481       .  S
C912        H915   1.083       .  S
C916        C917   1.406       .  A
C916        C921   1.410       .  A
C917        C918   1.425       .  A
C917        H922   1.083       .  S
C918        C919   1.395       .  A
C918       C1031   1.483       .  S
C919        C920   1.395       .  A
C919        H923   1.082       .  S
C920        C921   1.430       .  A
C920        C975   1.487       .  S
C921        H924   1.083       .  S
O925       Cu933   2.041   1_554  S
O925        C935   1.278       .  A
O926      Cu1377   2.044   1_545  S
O926        C936   1.280       .  A
O927      Cu1155   2.001       .  S
O927        C937   1.280       .  A
O928       Cu933   2.016   1_554  S
O928        C938   1.283       .  A
O929       Cu934   1.952   1_554  S
O929        C938   1.264       .  A
O930      Cu1156   1.935       .  S
O930        C937   1.262       .  A
O931      Cu1378   2.063   1_545  S
O931        C936   1.286       .  A
O932       Cu934   2.060   1_554  S
O932        C935   1.286       .  A
Cu933      O1370   2.044       .  S
Cu933      O1149   2.001       .  S
Cu933      Cu934   2.364       .  S
Cu934      O1152   1.935       .  S
Cu934      O1375   2.064       .  S
C935       N1086   1.464       .  S
C936        N946   1.467       .  S
C937       C1083   1.448       .  S
C938        C943   1.456       .  S
N939       C1005   1.473       .  S
N939        C943   1.365       .  A
N939        C940   1.372       .  A
C940        C941   1.388       .  A
C941        C942   1.355       .  A
C941        H944   1.083       .  S
C942        C943   1.372       .  A
C942        H945   1.083       .  S
N946        C950   1.363   1_556  A
N946        C947   1.364   1_556  A
C947        C948   1.386       .  A
C948        C949   1.348       .  A
C948        H951   1.084       .  S
C949        C950   1.376       .  A
C949        H952   1.083       .  S
C950       C1021   1.449   1_554  S
O953        C963   1.287       .  A
O954       Cu961   2.058       .  S
O954        C964   1.287       .  A
O955      Cu1405   1.955   1_545  S
O955        C965   1.264       .  A
O956       Cu961   1.955       .  S
O956        C966   1.264       .  A
O957        C966   1.283       .  A
O958        C965   1.283       .  A
O959        C964   1.279       .  A
O960       Cu962   2.050   1_655  S
O960        C963   1.279       .  A
Cu961      O1399   1.958       .  S
C963       N1079   1.470       .  S
C964        N974   1.471       .  S
C965        C971   1.463       .  S
C966       C1076   1.463       .  S
N967       C1020   1.461       .  S
N967        C971   1.358       .  A
N967        C968   1.362       .  A
C968        C969   1.391       .  A
C968       C1095   1.488       .  S
C969        C970   1.364       .  A
C969        H972   1.083       .  S
C970        C971   1.373       .  A
C970        H973   1.082       .  S
N974        C978   1.360       .  A
N974        C975   1.372       .  A
C975        C976   1.388       .  A
C976        C977   1.356       .  A
C976        H979   1.083       .  S
C977        C978   1.372       .  A
C977        H980   1.083       .  S
C978        C994   1.450       .  S
O981      Cu1433   2.060   1_544  S
O981        C991   1.286       .  A
O982       Cu989   2.063       .  S
O982        C992   1.286       .  A
O983       Cu989   1.957   1_554  S
O983        C993   1.265       .  A
O984      Cu1211   1.944       .  S
O984        C994   1.264       .  A
O985      Cu1212   2.000       .  S
O985        C994   1.279       .  A
O986       Cu990   2.015   1_554  S
O986        C993   1.282       .  A
O987       Cu990   2.044       .  S
O987        C992   1.280       .  A
O988      Cu1434   2.041   1_544  S
O988        C991   1.278       .  A
Cu989      O1425   2.058   1_556  S
Cu989      O1206   1.944       .  S
Cu989      Cu990   2.364       .  S
Cu990      O1207   2.000       .  S
Cu990      O1432   2.039   1_556  S
C991       N1037   1.464       .  S
C992       N1065   1.467       .  S
C993       C1034   1.458       .  S
O995       C1005   1.284       .  A
O996      Cu1003   2.066       .  S
O996       C1006   1.283       .  A
O997      Cu1447   1.991   1_545  S
O999      Cu1004   1.960       .  S
O1001      C1006   1.283       .  A
O1002     Cu1004   2.054   1_655  S
O1002      C1005   1.285       .  A
Cu1003     O1441   1.988       .  S
C1006      N1030   1.470       .  S
C1008      C1062   1.457       .  S
O1009      C1019   1.277       .  A
O1010     Cu1239   2.043       .  S
O1011     Cu1017   1.972   1_656  S
O1011      C1021   1.278       .  A
O1012      C1022   1.278       .  A
O1013     Cu1018   1.960       .  S
O1013      C1022   1.267       .  A
O1014      C1021   1.265       .  A
O1015     Cu1240   2.042       .  S
O1015      C1020   1.282       .  A
O1016     Cu1018   2.037       .  S
O1016      C1019   1.283       .  A
Cu1017     O1232   2.043   1_554  S
Cu1018     O1237   2.042   1_554  S
C1019      N1023   1.455       .  S
C1022      C1041   1.453       .  S
N1023      C1027   1.351       .  A
C1024      C1025   1.391       .  A
C1024      C1104   1.486       .  S
C1025      C1026   1.365       .  A
C1025      H1028   1.083       .  S
C1026      H1029   1.082       .  S
N1030      C1034   1.365       .  A
N1030      C1031   1.370       .  A
C1031      C1032   1.388       .  A
C1032      C1033   1.356       .  A
C1032      H1035   1.083       .  S
C1033      C1034   1.372       .  A
C1033      H1036   1.083       .  S
N1037      C1041   1.354       .  A
N1037      C1038   1.364       .  A
C1038      C1039   1.387       .  A
C1039      C1040   1.359       .  A
C1039      H1042   1.084       .  S
C1040      C1041   1.376       .  A
C1040      H1043   1.083       .  S
O1044      C1054   1.283       .  A
O1045     Cu1274   2.042   1_655  S
O1046     Cu1052   1.960   1_655  S
O1046      C1056   1.267       .  A
O1047      C1057   1.265       .  A
O1048     Cu1053   1.972   1_556  S
O1048      C1057   1.278       .  A
O1049      C1056   1.278       .  A
O1050     Cu1275   2.043       .  S
O1050      C1055   1.280       .  A
O1051     Cu1053   2.026       .  S
O1051      C1054   1.277       .  A
Cu1052     O1267   2.042   1_454  S
Cu1053     O1272   2.043   1_554  S
C1054      N1058   1.455       .  S
C1055      N1072   1.461       .  S
C1056      C1090   1.452       .  S
C1057      C1069   1.449   1_556  S
N1058      C1062   1.351       .  A
N1058      C1059   1.361       .  A
C1059      C1060   1.391       .  A
C1060      C1061   1.365       .  A
C1060      H1063   1.083       .  S
C1061      C1062   1.374       .  A
C1061      H1064   1.082       .  S
N1065      C1069   1.363   1_556  A
N1065      C1066   1.364   1_556  A
C1066      C1067   1.386       .  A
C1067      C1068   1.348       .  A
C1067      H1070   1.084       .  S
C1068      C1069   1.376       .  A
C1068      H1071   1.083       .  S
N1072      C1076   1.358       .  A
N1072      C1073   1.362       .  A
C1073      C1097   1.488       .  S
C1074      C1075   1.364       .  A
C1074      H1077   1.083       .  S
C1075      H1078   1.082       .  S
N1079      C1083   1.360       .  A
N1079      C1080   1.369       .  A
C1080      C1081   1.388       .  A
C1081      C1082   1.357       .  A
C1081      H1084   1.084       .  S
C1082      C1083   1.372       .  A
C1082      H1085   1.083       .  S
N1086      C1090   1.354       .  A
N1086      C1087   1.364       .  A
C1087      C1088   1.387       .  A
C1088      C1089   1.359       .  A
C1088      H1091   1.084       .  S
C1089      C1090   1.376       .  A
C1089      H1092   1.083       .  S
C1093      C1094   1.393       .  A
C1093      C1098   1.393       .  A
C1094      C1095   1.421       .  A
C1094      H1099   1.083       .  S
C1095      C1096   1.403       .  A
C1096      C1097   1.403       .  A
C1096      H1100   1.080       .  S
C1097      C1098   1.421       .  A
C1098      H1101   1.083       .  S
C1102      C1103   1.394       .  A
C1102      C1107   1.394   1_655  A
C1103      C1104   1.420       .  A
C1103      H1108   1.083       .  S
C1104      C1105   1.401       .  A
C1105      C1106   1.401   1_655  A
C1105      H1109   1.079       .  S
C1106      C1107   1.421       .  A
C1107      H1110   1.083       .  S
C1111      C1112   1.413       .  A
C1111      C1116   1.415       .  A
C1111      C1120   1.535       .  S
C1112      H1117   1.083       .  S
C1113      C1114   1.392       .  A
C1113      C1288   1.472       .  S
C1114      C1115   1.389       .  A
C1114      H1118   1.085       .  S
C1115      C1309   1.484       .  S
C1116      H1119   1.082       .  S
C1120      C1121   1.415       .  A
C1120      C1125   1.413       .  A
C1121      H1126   1.082       .  S
C1122      C1123   1.389       .  A
C1122      C1260   1.484       .  S
C1123      C1124   1.392       .  A
C1123      H1127   1.085       .  S
C1124      C1169   1.472       .  S
C1125      H1128   1.083       .  S
C1129      C1130   1.409       .  A
C1129      C1134   1.406       .  A
C1129      C1138   1.524       .  S
C1130      C1131   1.428       .  A
C1130      H1135   1.083       .  S
C1131      C1132   1.393       .  A
C1131      C1162   1.484       .  S
C1132      C1133   1.394       .  A
C1132      H1136   1.083       .  S
C1133      C1134   1.427       .  A
C1133      C1302   1.481       .  S
C1134      H1137   1.083       .  S
C1138      C1139   1.406       .  A
C1138      C1143   1.410       .  A
C1139      C1140   1.425       .  A
C1139      H1144   1.083       .  S
C1140      C1141   1.395       .  A
C1140      C1253   1.483       .  S
C1141      C1142   1.395       .  A
C1141      H1145   1.082       .  S
C1142      C1143   1.430       .  A
C1142      C1197   1.487       .  S
C1143      H1146   1.083       .  S
O1147     Cu1155   2.041       .  S
O1147      C1157   1.278       .  A
O1148     Cu1599   2.044   1_545  S
O1148      C1158   1.280       .  A
O1149      C1159   1.280       .  A
O1150     Cu1155   2.016       .  S
O1150      C1160   1.283       .  A
O1151     Cu1156   1.952       .  S
O1151      C1160   1.264       .  A
O1152      C1159   1.262       .  A
O1153     Cu1600   2.063   1_545  S
O1153      C1158   1.286       .  A
O1154     Cu1156   2.060       .  S
O1154      C1157   1.286       .  A
Cu1155     O1592   2.044       .  S
Cu1155    Cu1156   2.364       .  S
Cu1156     O1597   2.064       .  S
C1157      N1308   1.464       .  S
C1158      N1168   1.467       .  S
C1159      C1305   1.448       .  S
C1160      C1165   1.456       .  S
N1161      C1227   1.473       .  S
N1161      C1165   1.365       .  A
N1161      C1162   1.372       .  A
C1162      C1163   1.388       .  A
C1163      C1164   1.355       .  A
C1163      H1166   1.083       .  S
C1164      C1165   1.372       .  A
C1164      H1167   1.083       .  S
N1168      C1172   1.363       .  A
N1168      C1169   1.364       .  A
C1169      C1170   1.386       .  A
C1170      C1171   1.348       .  A
C1170      H1173   1.084       .  S
C1171      C1172   1.376       .  A
C1171      H1174   1.083       .  S
C1172      C1243   1.449       .  S
O1175      C1185   1.287       .  A
O1176     Cu1183   2.058       .  S
O1176      C1186   1.287       .  A
O1177     Cu1627   1.955   1_545  S
O1177      C1187   1.264       .  A
O1178     Cu1183   1.955       .  S
O1178      C1188   1.264       .  A
O1179      C1188   1.283       .  A
O1180      C1187   1.283       .  A
O1181      C1186   1.279       .  A
O1182     Cu1184   2.050   1_655  S
O1182      C1185   1.279       .  A
Cu1183     O1621   1.958       .  S
C1185      N1301   1.470       .  S
C1186      N1196   1.471       .  S
C1187      C1193   1.463       .  S
C1188      C1298   1.463       .  S
N1189      C1242   1.460       .  S
N1189      C1193   1.358       .  A
N1189      C1190   1.362       .  A
C1190      C1191   1.391       .  A
C1190      C1317   1.488       .  S
C1191      C1192   1.364       .  A
C1191      H1194   1.083       .  S
C1192      C1193   1.373       .  A
C1192      H1195   1.082       .  S
N1196      C1200   1.360       .  A
N1196      C1197   1.372       .  A
C1197      C1198   1.388       .  A
C1198      C1199   1.356       .  A
C1198      H1201   1.083       .  S
C1199      C1200   1.372       .  A
C1199      H1202   1.083       .  S
C1200      C1216   1.450       .  S
O1203     Cu1655   2.060   1_545  S
O1203      C1213   1.286       .  A
O1204     Cu1211   2.063       .  S
O1204      C1214   1.286       .  A
O1205     Cu1211   1.957       .  S
O1205      C1215   1.265       .  A
O1206      C1216   1.264       .  A
O1207      C1216   1.279       .  A
O1208     Cu1212   2.015       .  S
O1208      C1215   1.282       .  A
O1209     Cu1212   2.044       .  S
O1209      C1214   1.280       .  A
O1210     Cu1656   2.041   1_545  S
O1210      C1213   1.278       .  A
Cu1211     O1647   2.058       .  S
Cu1211    Cu1212   2.364       .  S
Cu1212     O1654   2.039       .  S
C1213      N1259   1.464       .  S
C1214      N1287   1.467       .  S
C1215      C1256   1.458       .  S
O1217      C1227   1.284       .  A
O1218     Cu1225   2.066       .  S
O1218      C1228   1.283       .  A
O1219     Cu1669   1.991   1_545  S
O1221     Cu1226   1.960       .  S
O1223      C1228   1.283       .  A
O1224     Cu1226   2.054   1_655  S
O1224      C1227   1.285       .  A
Cu1225     O1663   1.988       .  S
C1228      N1252   1.470       .  S
C1230      C1284   1.457       .  S
O1231      C1241   1.277       .  A
O1233     Cu1239   1.972   1_655  S
O1233      C1243   1.278       .  A
O1234      C1244   1.278       .  A
O1235     Cu1240   1.960       .  S
O1235      C1244   1.267       .  A
O1236      C1243   1.265       .  A
O1237      C1242   1.282       .  A
O1238     Cu1240   2.037       .  S
O1238      C1241   1.283       .  A
C1241      N1245   1.455       .  S
C1244      C1263   1.453       .  S
N1245      C1249   1.351       .  A
C1246      C1247   1.391       .  A
C1246      C1326   1.486       .  S
C1247      C1248   1.365       .  A
C1247      H1250   1.083       .  S
C1248      H1251   1.082       .  S
N1252      C1256   1.365       .  A
N1252      C1253   1.370       .  A
C1253      C1254   1.388       .  A
C1254      C1255   1.356       .  A
C1254      H1257   1.083       .  S
C1255      C1256   1.372       .  A
C1255      H1258   1.083       .  S
N1259      C1263   1.354       .  A
N1259      C1260   1.364       .  A
C1260      C1261   1.387       .  A
C1261      C1262   1.359       .  A
C1261      H1264   1.084       .  S
C1262      C1263   1.376       .  A
C1262      H1265   1.083       .  S
O1266      C1276   1.283       .  A
O1268     Cu1274   1.960   1_655  S
O1268      C1278   1.267       .  A
O1269      C1279   1.265       .  A
O1270     Cu1275   1.972       .  S
O1270      C1279   1.278       .  A
O1271      C1278   1.278       .  A
O1272      C1277   1.280       .  A
O1273     Cu1275   2.026       .  S
O1273      C1276   1.277       .  A
C1276      N1280   1.455       .  S
C1277      N1294   1.461       .  S
C1278      C1312   1.452       .  S
C1279      C1291   1.449       .  S
N1280      C1284   1.351       .  A
N1280      C1281   1.361       .  A
C1281      C1282   1.391       .  A
C1282      C1283   1.365       .  A
C1282      H1285   1.083       .  S
C1283      C1284   1.374       .  A
C1283      H1286   1.082       .  S
N1287      C1291   1.363       .  A
N1287      C1288   1.364       .  A
C1288      C1289   1.386       .  A
C1289      C1290   1.348       .  A
C1289      H1292   1.084       .  S
C1290      C1291   1.376       .  A
C1290      H1293   1.083       .  S
N1294      C1298   1.358       .  A
N1294      C1295   1.362       .  A
C1295      C1319   1.488       .  S
C1296      C1297   1.364       .  A
C1296      H1299   1.083       .  S
C1297      H1300   1.082       .  S
N1301      C1305   1.360       .  A
N1301      C1302   1.369       .  A
C1302      C1303   1.388       .  A
C1303      C1304   1.357       .  A
C1303      H1306   1.084       .  S
C1304      C1305   1.372       .  A
C1304      H1307   1.083       .  S
N1308      C1312   1.354       .  A
N1308      C1309   1.364       .  A
C1309      C1310   1.387       .  A
C1310      C1311   1.359       .  A
C1310      H1313   1.084       .  S
C1311      C1312   1.376       .  A
C1311      H1314   1.083       .  S
C1315      C1316   1.393       .  A
C1315      C1320   1.393       .  A
C1316      C1317   1.421       .  A
C1316      H1321   1.083       .  S
C1317      C1318   1.403       .  A
C1318      C1319   1.403       .  A
C1318      H1322   1.080       .  S
C1319      C1320   1.421       .  A
C1320      H1323   1.083       .  S
C1324      C1325   1.394   1_455  A
C1324      C1329   1.394       .  A
C1325      C1326   1.420       .  A
C1325      H1330   1.083       .  S
C1326      C1327   1.401       .  A
C1327      C1328   1.401   1_655  A
C1327      H1331   1.079       .  S
C1328      C1329   1.421       .  A
C1329      H1332   1.083       .  S
C1333      C1334   1.416       .  A
C1333      C1338   1.414       .  A
C1333      C1342   1.537       .  S
C1334      C1557   1.425       .  A
C1334      H1339   1.083       .  S
C1335      C1556   1.425       .  A
C1335      C1336   1.392       .  A
C1335      C1510   1.473   1_556  S
C1336      C1337   1.389       .  A
C1336      H1340   1.085   1_556  S
C1337      C1560   1.423       .  A
C1337      C1531   1.480   1_556  S
C1338      C1559   1.423       .  A
C1338      H1341   1.082       .  S
C1342      C1343   1.414       .  A
C1342      C1347   1.416       .  A
C1343      C1566   1.423       .  A
C1343      H1348   1.082       .  S
C1344      C1565   1.423       .  A
C1344      C1345   1.389       .  A
C1344      C1482   1.480   1_556  S
C1345      C1346   1.392       .  A
C1345      H1349   1.085   1_556  S
C1346      C1569   1.425       .  A
C1346      C1391   1.473   1_556  S
C1347      C1568   1.425       .  A
C1347      H1350   1.083       .  S
C1351      C1352   1.406   1_565  A
C1351      C1356   1.410       .  A
C1351      C1360   1.524       .  S
C1352      C1353   1.425       .  A
C1352      H1357   1.083       .  S
C1353      C1354   1.395   1_545  A
C1353      C1384   1.483       .  S
C1354      C1355   1.395       .  A
C1354      H1358   1.082       .  S
C1355      C1356   1.430       .  A
C1355      C1524   1.487       .  S
C1356      H1359   1.083       .  S
C1360      C1361   1.409       .  A
C1360      C1365   1.406   1_565  A
C1361      C1362   1.428       .  A
C1361      H1366   1.083       .  S
C1362      C1363   1.393       .  A
C1362      C1475   1.484       .  S
C1363      C1364   1.394   1_565  A
C1363      H1367   1.083       .  S
C1364      C1365   1.427       .  A
C1364      C1419   1.481       .  S
C1365      H1368   1.083       .  S
O1369     Cu1377   2.039   1_554  S
O1369      C1379   1.278       .  A
O1370      C1380   1.279       .  A
O1371     Cu1599   2.000       .  S
O1371      C1381   1.279       .  A
O1372     Cu1377   2.014   1_544  S
O1372      C1382   1.282       .  A
O1373     Cu1378   1.957   1_544  S
O1373      C1382   1.265       .  A
O1374     Cu1600   1.944       .  S
O1374      C1381   1.264       .  A
O1375      C1380   1.286       .  A
O1376     Cu1378   2.058   1_554  S
O1376      C1379   1.286       .  A
Cu1377     O1593   2.000       .  S
Cu1377    Cu1378   2.364       .  S
Cu1378     O1596   1.944       .  S
C1379      N1530   1.463       .  S
C1380      N1390   1.467       .  S
C1381      C1527   1.450       .  S
C1382      C1387   1.458       .  S
N1383      C1449   1.470   1_545  S
N1383      C1387   1.365       .  A
N1383      C1384   1.370       .  A
C1384      C1385   1.388       .  A
C1385      C1386   1.356       .  A
C1385      H1388   1.083       .  S
C1386      C1387   1.372       .  A
C1386      H1389   1.083       .  S
N1390      C1394   1.363   1_556  A
N1390      C1391   1.365   1_556  A
C1391      C1392   1.385       .  A
C1392      C1393   1.348       .  A
C1392      H1395   1.083       .  S
C1393      C1394   1.376       .  A
C1393      H1396   1.083       .  S
C1394      C1465   1.449   1_554  S
O1397      C1407   1.287       .  A
O1398     Cu1405   2.058       .  S
O1398      C1408   1.287       .  A
O1399      C1409   1.265       .  A
O1400     Cu1405   1.958       .  S
O1400      C1410   1.264       .  A
O1401      C1410   1.283       .  A
O1402      C1409   1.283       .  A
O1403      C1408   1.279       .  A
O1404     Cu1406   2.053   1_655  S
O1404      C1407   1.279       .  A
C1407      N1523   1.471       .  S
C1408      N1418   1.470   1_565  S
C1409      C1415   1.461       .  S
C1410      C1520   1.461       .  S
N1411      C1464   1.458       .  S
N1411      C1415   1.355       .  A
N1411      C1412   1.360       .  A
C1412      C1413   1.390       .  A
C1412      C1539   1.483       .  S
C1413      C1414   1.364       .  A
C1413      H1416   1.083       .  S
C1414      C1415   1.373       .  A
C1414      H1417   1.081       .  S
N1418      C1422   1.360       .  A
N1418      C1419   1.369       .  A
C1419      C1420   1.388       .  A
C1420      C1421   1.357       .  A
C1420      H1423   1.084       .  S
C1421      C1422   1.372       .  A
C1421      H1424   1.083       .  S
C1422      C1438   1.448       .  S
O1425      C1435   1.286       .  A
O1426     Cu1433   2.063       .  S
O1426      C1436   1.286       .  A
O1427     Cu1433   1.953   1_554  S
O1427      C1437   1.264       .  A
O1428     Cu1655   1.935   1_545  S
O1428      C1438   1.262       .  A
O1429     Cu1656   2.001   1_545  S
O1429      C1438   1.280       .  A
O1430     Cu1434   2.017   1_554  S
O1430      C1437   1.283       .  A
O1431     Cu1434   2.044       .  S
O1431      C1436   1.279       .  A
O1432      C1435   1.278       .  A
Cu1433     O1650   1.935   1_565  S
Cu1433    Cu1434   2.364       .  S
Cu1434     O1651   2.001   1_565  S
C1435      N1481   1.463       .  S
C1436      N1509   1.467       .  S
C1437      C1478   1.456       .  S
O1439      C1449   1.283       .  A
O1440     Cu1447   2.070   1_545  S
O1440      C1450   1.284   1_545  A
O1443     Cu1448   1.955   1_455  S
O1445      C1450   1.285       .  A
O1446     Cu1448   2.049       .  S
O1446      C1449   1.283       .  A
C1450      N1474   1.473       .  S
C1452      C1506   1.456       .  S
O1453      C1463   1.277       .  A
O1454     Cu1683   2.041       .  S
O1455     Cu1461   1.969   1_656  S
O1455      C1465   1.277       .  A
O1456      C1466   1.277       .  A
O1457     Cu1462   1.961       .  S
O1457      C1466   1.267       .  A
O1458      C1465   1.266       .  A
O1459     Cu1684   2.038       .  S
O1459      C1464   1.282       .  A
O1460     Cu1462   2.030       .  S
O1460      C1463   1.282       .  A
Cu1461     O1676   2.041   1_554  S
Cu1462     O1681   2.038   1_554  S
C1463      N1467   1.455       .  S
C1466      C1485   1.451       .  S
N1467      C1471   1.352       .  A
C1468      C1469   1.390       .  A
C1468      C1548   1.484       .  S
C1469      C1470   1.364       .  A
C1469      H1472   1.083       .  S
C1470      H1473   1.081       .  S
N1474      C1478   1.365       .  A
N1474      C1475   1.372       .  A
C1475      C1476   1.388       .  A
C1476      C1477   1.355       .  A
C1476      H1479   1.083       .  S
C1477      C1478   1.372       .  A
C1477      H1480   1.083       .  S
N1481      C1485   1.354       .  A
N1481      C1482   1.362       .  A
C1482      C1483   1.387       .  A
C1483      C1484   1.359       .  A
C1483      H1486   1.083       .  S
C1484      C1485   1.377       .  A
C1484      H1487   1.083       .  S
O1488      C1498   1.282       .  A
O1489     Cu1718   2.039       .  S
O1490     Cu1496   1.960       .  S
O1490      C1500   1.267       .  A
O1491      C1501   1.266       .  A
O1492     Cu1497   1.969   1_556  S
O1492      C1501   1.277       .  A
O1493      C1500   1.277       .  A
O1494     Cu1719   2.041       .  S
O1494      C1499   1.281       .  A
O1495     Cu1497   2.027       .  S
O1495      C1498   1.277       .  A
Cu1496     O1711   2.039   1_554  S
Cu1497     O1716   2.041   1_554  S
C1498      N1502   1.455       .  S
C1499      N1516   1.458       .  S
C1500      C1534   1.451       .  S
C1501      C1513   1.449   1_556  S
N1502      C1506   1.352       .  A
N1502      C1503   1.361       .  A
C1503      C1504   1.390       .  A
C1504      C1505   1.363       .  A
C1504      H1507   1.083       .  S
C1505      C1506   1.373       .  A
C1505      H1508   1.081       .  S
N1509      C1513   1.363   1_556  A
N1509      C1510   1.365   1_556  A
C1510      C1511   1.385       .  A
C1511      C1512   1.348       .  A
C1511      H1514   1.083       .  S
C1512      C1513   1.376       .  A
C1512      H1515   1.083       .  S
N1516      C1520   1.356       .  A
N1516      C1517   1.360       .  A
C1517      C1541   1.484       .  S
C1518      C1519   1.364       .  A
C1518      H1521   1.083       .  S
C1519      H1522   1.081       .  S
N1523      C1527   1.360       .  A
N1523      C1524   1.372       .  A
C1524      C1525   1.388       .  A
C1525      C1526   1.356       .  A
C1525      H1528   1.083       .  S
C1526      C1527   1.372       .  A
C1526      H1529   1.083       .  S
N1530      C1534   1.354       .  A
N1530      C1531   1.362       .  A
C1531      C1532   1.387       .  A
C1532      C1533   1.359       .  A
C1532      H1535   1.083       .  S
C1533      C1534   1.377       .  A
C1533      H1536   1.083       .  S
C1537      C1538   1.392       .  A
C1537      C1542   1.392       .  A
C1538      C1539   1.420       .  A
C1538      H1543   1.083       .  S
C1539      C1540   1.399       .  A
C1540      C1541   1.400       .  A
C1540      H1544   1.080       .  S
C1541      C1542   1.420       .  A
C1542      H1545   1.083       .  S
C1546      C1547   1.393   1_455  A
C1546      C1551   1.393       .  A
C1547      C1548   1.420       .  A
C1547      H1552   1.083       .  S
C1548      C1549   1.399   1_655  A
C1549      C1550   1.399       .  A
C1549      H1553   1.078       .  S
C1550      C1551   1.420       .  A
C1551      H1554   1.083       .  S
C1555      C1556   1.416       .  A
C1555      C1560   1.414       .  A
C1555      C1564   1.537       .  S
C1556      H1561   1.083       .  S
C1557      C1558   1.392       .  A
C1557      C1732   1.473       .  S
C1558      C1559   1.389       .  A
C1558      H1562   1.085       .  S
C1559      C1753   1.480       .  S
C1560      H1563   1.082       .  S
C1564      C1565   1.414       .  A
C1564      C1569   1.416       .  A
C1565      H1570   1.082       .  S
C1566      C1567   1.389       .  A
C1566      C1704   1.480       .  S
C1567      C1568   1.392       .  A
C1567      H1571   1.085       .  S
C1568      C1613   1.473       .  S
C1569      H1572   1.083       .  S
C1573      C1574   1.406   1_565  A
C1573      C1578   1.410       .  A
C1573      C1582   1.524       .  S
C1574      C1575   1.425       .  A
C1574      H1579   1.083       .  S
C1575      C1576   1.395   1_545  A
C1575      C1606   1.483       .  S
C1576      C1577   1.395       .  A
C1576      H1580   1.082       .  S
C1577      C1578   1.430       .  A
C1577      C1746   1.487       .  S
C1578      H1581   1.083       .  S
C1582      C1583   1.409       .  A
C1582      C1587   1.406   1_565  A
C1583      C1584   1.428       .  A
C1583      H1588   1.083       .  S
C1584      C1585   1.393       .  A
C1584      C1697   1.484       .  S
C1585      C1586   1.394   1_565  A
C1585      H1589   1.082       .  S
C1586      C1587   1.427       .  A
C1586      C1641   1.481       .  S
C1587      H1590   1.083       .  S
O1591     Cu1599   2.039       .  S
O1591      C1601   1.278       .  A
O1592      C1602   1.279       .  A
O1593      C1603   1.279       .  A
O1594     Cu1599   2.014   1_545  S
O1594      C1604   1.282       .  A
O1595     Cu1600   1.957   1_545  S
O1595      C1604   1.265       .  A
O1596      C1603   1.264       .  A
O1597      C1602   1.286       .  A
O1598     Cu1600   2.058       .  S
O1598      C1601   1.286       .  A
Cu1599    Cu1600   2.364       .  S
C1601      N1752   1.463       .  S
C1602      N1612   1.467       .  S
C1603      C1749   1.450       .  S
C1604      C1609   1.458       .  S
N1605      C1671   1.470   1_545  S
N1605      C1609   1.365       .  A
N1605      C1606   1.370       .  A
C1606      C1607   1.388       .  A
C1607      C1608   1.356       .  A
C1607      H1610   1.083       .  S
C1608      C1609   1.372       .  A
C1608      H1611   1.083       .  S
N1612      C1616   1.363       .  A
N1612      C1613   1.365       .  A
C1613      C1614   1.385       .  A
C1614      C1615   1.348       .  A
C1614      H1617   1.083       .  S
C1615      C1616   1.376       .  A
C1615      H1618   1.083       .  S
C1616      C1687   1.449       .  S
O1619      C1629   1.287       .  A
O1620     Cu1627   2.058       .  S
O1620      C1630   1.287       .  A
O1621      C1631   1.265       .  A
O1622     Cu1627   1.958       .  S
O1622      C1632   1.264       .  A
O1623      C1632   1.283       .  A
O1624      C1631   1.283       .  A
O1625      C1630   1.279       .  A
O1626     Cu1628   2.053   1_655  S
O1626      C1629   1.279       .  A
C1629      N1745   1.471       .  S
C1630      N1640   1.470   1_565  S
C1631      C1637   1.461       .  S
C1632      C1742   1.461       .  S
N1633      C1686   1.458       .  S
N1633      C1637   1.355       .  A
N1633      C1634   1.360       .  A
C1634      C1635   1.390       .  A
C1634      C1761   1.483       .  S
C1635      C1636   1.364       .  A
C1635      H1638   1.083       .  S
C1636      C1637   1.373       .  A
C1636      H1639   1.081       .  S
N1640      C1644   1.360       .  A
N1640      C1641   1.369       .  A
C1641      C1642   1.388       .  A
C1642      C1643   1.357       .  A
C1642      H1645   1.084       .  S
C1643      C1644   1.372       .  A
C1643      H1646   1.083       .  S
C1644      C1660   1.448       .  S
O1647      C1657   1.286       .  A
O1648     Cu1655   2.063       .  S
O1648      C1658   1.286       .  A
O1649     Cu1655   1.953       .  S
O1649      C1659   1.264       .  A
O1650      C1660   1.262       .  A
O1651      C1660   1.280       .  A
O1652     Cu1656   2.017       .  S
O1652      C1659   1.283       .  A
O1653     Cu1656   2.044       .  S
O1653      C1658   1.279       .  A
O1654      C1657   1.278       .  A
Cu1655    Cu1656   2.364       .  S
C1657      N1703   1.463       .  S
C1658      N1731   1.467       .  S
C1659      C1700   1.456       .  S
O1661      C1671   1.283       .  A
O1662     Cu1669   2.070   1_545  S
O1662      C1672   1.284   1_545  A
O1665     Cu1670   1.955   1_455  S
O1667      C1672   1.285       .  A
O1668     Cu1670   2.049       .  S
O1668      C1671   1.283       .  A
C1672      N1696   1.473       .  S
C1674      C1728   1.456       .  S
O1675      C1685   1.277       .  A
O1677     Cu1683   1.969   1_655  S
O1677      C1687   1.277       .  A
O1678      C1688   1.277       .  A
O1679     Cu1684   1.961       .  S
O1679      C1688   1.267       .  A
O1680      C1687   1.266       .  A
O1681      C1686   1.282       .  A
O1682     Cu1684   2.030       .  S
O1682      C1685   1.282       .  A
C1685      N1689   1.455       .  S
C1688      C1707   1.451       .  S
N1689      C1693   1.352       .  A
C1690      C1691   1.390       .  A
C1690      C1770   1.484       .  S
C1691      C1692   1.364       .  A
C1691      H1694   1.083       .  S
C1692      H1695   1.081       .  S
N1696      C1700   1.365       .  A
N1696      C1697   1.372       .  A
C1697      C1698   1.388       .  A
C1698      C1699   1.355       .  A
C1698      H1701   1.083       .  S
C1699      C1700   1.372       .  A
C1699      H1702   1.083       .  S
N1703      C1707   1.354       .  A
N1703      C1704   1.362       .  A
C1704      C1705   1.387       .  A
C1705      C1706   1.359       .  A
C1705      H1708   1.083       .  S
C1706      C1707   1.377       .  A
C1706      H1709   1.083       .  S
O1710      C1720   1.282       .  A
O1712     Cu1718   1.960       .  S
O1712      C1722   1.267       .  A
O1713      C1723   1.266       .  A
O1714     Cu1719   1.969       .  S
O1714      C1723   1.277       .  A
O1715      C1722   1.277       .  A
O1716      C1721   1.281       .  A
O1717     Cu1719   2.027       .  S
O1717      C1720   1.277       .  A
C1720      N1724   1.455       .  S
C1721      N1738   1.458       .  S
C1722      C1756   1.451       .  S
C1723      C1735   1.449       .  S
N1724      C1728   1.352       .  A
N1724      C1725   1.361       .  A
C1725      C1726   1.390       .  A
C1726      C1727   1.363       .  A
C1726      H1729   1.083       .  S
C1727      C1728   1.373       .  A
C1727      H1730   1.081       .  S
N1731      C1735   1.363       .  A
N1731      C1732   1.365       .  A
C1732      C1733   1.385       .  A
C1733      C1734   1.348       .  A
C1733      H1736   1.083       .  S
C1734      C1735   1.376       .  A
C1734      H1737   1.083       .  S
N1738      C1742   1.356       .  A
N1738      C1739   1.360       .  A
C1739      C1763   1.484       .  S
C1740      C1741   1.364       .  A
C1740      H1743   1.083       .  S
C1741      H1744   1.081       .  S
N1745      C1749   1.360       .  A
N1745      C1746   1.372       .  A
C1746      C1747   1.388       .  A
C1747      C1748   1.356       .  A
C1747      H1750   1.083       .  S
C1748      C1749   1.372       .  A
C1748      H1751   1.083       .  S
N1752      C1756   1.354       .  A
N1752      C1753   1.362       .  A
C1753      C1754   1.387       .  A
C1754      C1755   1.359       .  A
C1754      H1757   1.083       .  S
C1755      C1756   1.377       .  A
C1755      H1758   1.083       .  S
C1759      C1760   1.392       .  A
C1759      C1764   1.392       .  A
C1760      C1761   1.420       .  A
C1760      H1765   1.083       .  S
C1761      C1762   1.399       .  A
C1762      C1763   1.400       .  A
C1762      H1766   1.080       .  S
C1763      C1764   1.420       .  A
C1764      H1767   1.083       .  S
C1768      C1769   1.393   1_455  A
C1768      C1773   1.393       .  A
C1769      C1770   1.420       .  A
C1769      H1774   1.083       .  S
C1770      C1771   1.399   1_655  A
C1771      C1772   1.399       .  A
C1771      H1775   1.078       .  S
C1772      C1773   1.420       .  A
C1773      H1776   1.083       .  S
